100031
  -OEChem-11232108433D

 26 27  0     1  0  0  0  0  0999 V2000
   -1.7813   -1.1238    0.9633 O   0  0  0  0  0  0  0  0  0  0  0  0
   -1.8899    2.0817    0.2309 O   0  0  0  0  0  0  0  0  0  0  0  0
   -1.8055   -0.2305   -0.1578 C   0  0  2  0  0  0  0  0  0  0  0  0
   -0.9709   -1.4822   -0.1643 C   0  0  1  0  0  0  0  0  0  0  0  0
    0.5024   -1.3874    0.0694 C   0  0  0  0  0  0  0  0  0  0  0  0
    1.0376   -0.0229   -0.3897 C   0  0  1  0  0  0  0  0  0  0  0  0
   -1.1875    1.0825    0.1218 C   0  0  0  0  0  0  0  0  0  0  0  0
    0.3100    1.1128    0.3414 C   0  0  0  0  0  0  0  0  0  0  0  0
   -3.0927   -0.2903   -0.9100 C   0  0  0  0  0  0  0  0  0  0  0  0
    2.5178    0.0675   -0.1700 C   0  0  0  0  0  0  0  0  0  0  0  0
    2.9842   -0.0521    1.2506 C   0  0  0  0  0  0  0  0  0  0  0  0
    3.3758    0.2447   -1.1856 C   0  0  0  0  0  0  0  0  0  0  0  0
   -1.2686   -2.3406   -0.7493 H   0  0  0  0  0  0  0  0  0  0  0  0
    1.0048   -2.1896   -0.4854 H   0  0  0  0  0  0  0  0  0  0  0  0
    0.6970   -1.5692    1.1325 H   0  0  0  0  0  0  0  0  0  0  0  0
    0.8142    0.0768   -1.4620 H   0  0  0  0  0  0  0  0  0  0  0  0
    0.6801    2.0830   -0.0113 H   0  0  0  0  0  0  0  0  0  0  0  0
    0.4578    1.0637    1.4260 H   0  0  0  0  0  0  0  0  0  0  0  0
   -3.4589   -1.3157   -1.0321 H   0  0  0  0  0  0  0  0  0  0  0  0
   -3.8711    0.2770   -0.3887 H   0  0  0  0  0  0  0  0  0  0  0  0
   -2.9672    0.1405   -1.9088 H   0  0  0  0  0  0  0  0  0  0  0  0
    2.5728    0.7396    1.8822 H   0  0  0  0  0  0  0  0  0  0  0  0
    2.7288   -1.0233    1.6825 H   0  0  0  0  0  0  0  0  0  0  0  0
    4.0752    0.0371    1.3163 H   0  0  0  0  0  0  0  0  0  0  0  0
    4.4456    0.3087   -1.0165 H   0  0  0  0  0  0  0  0  0  0  0  0
    3.0297    0.3300   -2.2104 H   0  0  0  0  0  0  0  0  0  0  0  0
  1  3  1  0  0  0  0
  1  4  1  0  0  0  0
  2  7  2  0  0  0  0
  3  4  1  0  0  0  0
  3  7  1  0  0  0  0
  3  9  1  0  0  0  0
  4  5  1  0  0  0  0
  4 13  1  0  0  0  0
  5  6  1  0  0  0  0
  5 14  1  0  0  0  0
  5 15  1  0  0  0  0
  6  8  1  0  0  0  0
  6 10  1  0  0  0  0
  6 16  1  0  0  0  0
  7  8  1  0  0  0  0
  8 17  1  0  0  0  0
  8 18  1  0  0  0  0
  9 19  1  0  0  0  0
  9 20  1  0  0  0  0
  9 21  1  0  0  0  0
 10 11  1  0  0  0  0
 10 12  2  0  0  0  0
 11 22  1  0  0  0  0
 11 23  1  0  0  0  0
 11 24  1  0  0  0  0
 12 25  1  0  0  0  0
 12 26  1  0  0  0  0
M  END
> <PUBCHEM_COMPOUND_CID>
100031

> <PUBCHEM_CONFORMER_RMSD>
0.4

> <PUBCHEM_CONFORMER_DIVERSEORDER>
1
3
8
19
15
5
14
22
10
6
4
7
11
12
21
9
2
20
17
16
13
18

> <PUBCHEM_MMFF94_PARTIAL_CHARGES>
15
1 -0.3
10 -0.28
11 0.14
12 -0.3
13 0.1
2 -0.57
25 0.15
26 0.15
3 0.05
4 -0.05
5 0.09
6 0.14
7 0.51
8 0.06
9 0.09

> <PUBCHEM_EFFECTIVE_ROTOR_COUNT>
1.8

> <PUBCHEM_PHARMACOPHORE_FEATURES>
3
1 1 acceptor
1 2 acceptor
7 1 3 4 5 6 7 8 rings

> <PUBCHEM_HEAVY_ATOM_COUNT>
12

> <PUBCHEM_ATOM_DEF_STEREO_COUNT>
0

> <PUBCHEM_ATOM_UDEF_STEREO_COUNT>
3

> <PUBCHEM_BOND_DEF_STEREO_COUNT>
0

> <PUBCHEM_BOND_UDEF_STEREO_COUNT>
0

> <PUBCHEM_ISOTOPIC_ATOM_COUNT>
0

> <PUBCHEM_COMPONENT_COUNT>
1

> <PUBCHEM_CACTVS_TAUTO_COUNT>
2

> <PUBCHEM_CONFORMER_ID>
000186BF00000001

> <PUBCHEM_MMFF94_ENERGY>
21.8578

> <PUBCHEM_FEATURE_SELFOVERLAP>
15.223

> <PUBCHEM_SHAPE_FINGERPRINT>
11206711 2 18412259523834893661
12423570 1 17117462819927105315
12524768 44 18055916743041391520
12716758 59 18272092643375259258
12897270 3 18413108381012791974
12932764 1 17775571922756033382
13024252 1 12179842822943036343
15310529 11 16805321132171751614
16945 1 18411982485332403171
20201158 50 18130786784870549518
20645464 45 17846771923588883050
20645476 183 17676491695729841390
21040471 1 18267306426162216824
21501502 16 18196936573804031646
21524375 3 17836933295790879585
22802520 49 17985570882681602558
23402539 116 18199447970120517439
23552423 10 18190463753304718970
23559900 14 18342175588272139364
2748010 2 18196379112971665615
3248919 1 18187364316125506110
369184 2 15051739702349901610
5084963 1 17775289386737582734
8030462 33 18408885122733488934

> <PUBCHEM_SHAPE_MULTIPOLES>
235.22
4.8
1.54
1.02
2
0.29
0
0.16
-0.82
-0.91
0.18
0.53
-0.06
-0.1

> <PUBCHEM_SHAPE_SELFOVERLAP>
485.191

> <PUBCHEM_SHAPE_VOLUME>
135.7

> <PUBCHEM_COORDINATE_TYPE>
2
5
10

$$$$
