100197
  -OEChem-11232109223D

 29 28  0     1  0  0  0  0  0999 V2000
    0.7148    2.3360   -0.1260 O   0  0  0  0  0  0  0  0  0  0  0  0
    1.3973   -0.0150   -0.0089 C   0  0  0  0  0  0  0  0  0  0  0  0
    0.2657    0.9998   -0.3863 C   0  0  1  0  0  0  0  0  0  0  0  0
    2.6796    0.3342   -0.7993 C   0  0  0  0  0  0  0  0  0  0  0  0
    1.7316    0.1275    1.4938 C   0  0  0  0  0  0  0  0  0  0  0  0
    1.0044   -1.4357   -0.4076 C   0  0  0  0  0  0  0  0  0  0  0  0
   -1.0349    0.7942    0.3540 C   0  0  0  0  0  0  0  0  0  0  0  0
   -2.1040    0.0717   -0.0325 C   0  0  0  0  0  0  0  0  0  0  0  0
    0.8880   -2.5080    0.3859 C   0  0  0  0  0  0  0  0  0  0  0  0
   -3.3118   -0.0360    0.8606 C   0  0  0  0  0  0  0  0  0  0  0  0
   -2.2309   -0.6688   -1.3336 C   0  0  0  0  0  0  0  0  0  0  0  0
    0.0783    0.9572   -1.4657 H   0  0  0  0  0  0  0  0  0  0  0  0
    3.0890    1.3075   -0.5072 H   0  0  0  0  0  0  0  0  0  0  0  0
    3.4672   -0.4091   -0.6240 H   0  0  0  0  0  0  0  0  0  0  0  0
    2.4879    0.3628   -1.8785 H   0  0  0  0  0  0  0  0  0  0  0  0
    0.8828   -0.1360    2.1342 H   0  0  0  0  0  0  0  0  0  0  0  0
    2.0281    1.1521    1.7457 H   0  0  0  0  0  0  0  0  0  0  0  0
    2.5693   -0.5220    1.7758 H   0  0  0  0  0  0  0  0  0  0  0  0
    0.8060   -1.5882   -1.4680 H   0  0  0  0  0  0  0  0  0  0  0  0
   -1.0788    1.2748    1.3314 H   0  0  0  0  0  0  0  0  0  0  0  0
    1.3117    2.5938   -0.8486 H   0  0  0  0  0  0  0  0  0  0  0  0
    0.6022   -3.4660   -0.0361 H   0  0  0  0  0  0  0  0  0  0  0  0
    1.0660   -2.4685    1.4534 H   0  0  0  0  0  0  0  0  0  0  0  0
   -4.1948    0.3685    0.3550 H   0  0  0  0  0  0  0  0  0  0  0  0
   -3.5040   -1.0844    1.1116 H   0  0  0  0  0  0  0  0  0  0  0  0
   -3.1875    0.5122    1.8004 H   0  0  0  0  0  0  0  0  0  0  0  0
   -2.3247   -1.7437   -1.1470 H   0  0  0  0  0  0  0  0  0  0  0  0
   -3.1257   -0.3343   -1.8697 H   0  0  0  0  0  0  0  0  0  0  0  0
   -1.3835   -0.5212   -2.0059 H   0  0  0  0  0  0  0  0  0  0  0  0
  1  3  1  0  0  0  0
  1 21  1  0  0  0  0
  2  3  1  0  0  0  0
  2  4  1  0  0  0  0
  2  5  1  0  0  0  0
  2  6  1  0  0  0  0
  3  7  1  0  0  0  0
  3 12  1  0  0  0  0
  4 13  1  0  0  0  0
  4 14  1  0  0  0  0
  4 15  1  0  0  0  0
  5 16  1  0  0  0  0
  5 17  1  0  0  0  0
  5 18  1  0  0  0  0
  6  9  2  0  0  0  0
  6 19  1  0  0  0  0
  7  8  2  0  0  0  0
  7 20  1  0  0  0  0
  8 10  1  0  0  0  0
  8 11  1  0  0  0  0
  9 22  1  0  0  0  0
  9 23  1  0  0  0  0
 10 24  1  0  0  0  0
 10 25  1  0  0  0  0
 10 26  1  0  0  0  0
 11 27  1  0  0  0  0
 11 28  1  0  0  0  0
 11 29  1  0  0  0  0
M  END
> <PUBCHEM_COMPOUND_CID>
100197

> <PUBCHEM_CONFORMER_RMSD>
0.6

> <PUBCHEM_CONFORMER_DIVERSEORDER>
1
7
10
18
16
9
13
4
15
14
8
6
17
11
3
12
19
2
5

> <PUBCHEM_MMFF94_PARTIAL_CHARGES>
14
1 -0.68
10 0.14
11 0.14
19 0.15
2 0.14
20 0.15
21 0.4
22 0.15
23 0.15
3 0.42
6 -0.29
7 -0.29
8 -0.28
9 -0.3

> <PUBCHEM_EFFECTIVE_ROTOR_COUNT>
3

> <PUBCHEM_PHARMACOPHORE_FEATURES>
5
1 1 acceptor
1 1 donor
1 9 hydrophobe
3 2 4 5 hydrophobe
3 8 10 11 hydrophobe

> <PUBCHEM_HEAVY_ATOM_COUNT>
11

> <PUBCHEM_ATOM_DEF_STEREO_COUNT>
0

> <PUBCHEM_ATOM_UDEF_STEREO_COUNT>
1

> <PUBCHEM_BOND_DEF_STEREO_COUNT>
0

> <PUBCHEM_BOND_UDEF_STEREO_COUNT>
0

> <PUBCHEM_ISOTOPIC_ATOM_COUNT>
0

> <PUBCHEM_COMPONENT_COUNT>
1

> <PUBCHEM_CACTVS_TAUTO_COUNT>
1

> <PUBCHEM_CONFORMER_ID>
0001876500000001

> <PUBCHEM_MMFF94_ENERGY>
22.0741

> <PUBCHEM_FEATURE_SELFOVERLAP>
25.374

> <PUBCHEM_SHAPE_FINGERPRINT>
10219947 1 18408599275353418488
12326174 3 17894347765609996898
12932764 1 17988920038070618857
15775835 57 17917998269434881355
16945 1 18410566305929306541
18185500 45 18342732988331339783
20201158 50 18187089446861361435
21922407 69 15910754017895175991
23235685 24 18336552693500835139
23552423 10 18045228136941186775
241688 4 17977105660648781571
2748010 2 18122902032215893061
29004967 10 18334858290305951265
5084963 1 18060137699302710877
528862 383 18410581647806046143
528886 8 18410303526929404544

> <PUBCHEM_SHAPE_MULTIPOLES>
220.51
3.95
1.95
1.17
2.5
0.53
0.1
0.13
0.15
-0.89
0.01
0.05
0.08
-0.29

> <PUBCHEM_SHAPE_SELFOVERLAP>
414.321

> <PUBCHEM_SHAPE_VOLUME>
138.5

> <PUBCHEM_COORDINATE_TYPE>
2
5
10

$$$$
