100240
  -OEChem-11232109273D

 23 23  0     0  0  0  0  0  0999 V2000
   -1.1634    0.9028    0.0045 O   0  0  0  0  0  0  0  0  0  0  0  0
    0.5379   -0.6798    0.0023 N   0  0  0  0  0  0  0  0  0  0  0  0
    2.4260    1.3941   -0.0018 N   0  0  0  0  0  0  0  0  0  0  0  0
   -3.4841    0.3169   -0.0131 C   0  0  0  0  0  0  0  0  0  0  0  0
   -2.0550   -0.2035    0.0064 C   0  0  0  0  0  0  0  0  0  0  0  0
   -4.4972   -0.8136    0.0030 C   0  0  0  0  0  0  0  0  0  0  0  0
    0.1773    0.6167    0.0027 C   0  0  0  0  0  0  0  0  0  0  0  0
    1.8637   -0.9220   -0.0005 C   0  0  0  0  0  0  0  0  0  0  0  0
    1.1003    1.6362    0.0008 C   0  0  0  0  0  0  0  0  0  0  0  0
    2.7911    0.0966   -0.0024 C   0  0  0  0  0  0  0  0  0  0  0  0
    2.3034   -2.3444   -0.0020 C   0  0  0  0  0  0  0  0  0  0  0  0
   -3.6480    0.9750    0.8486 H   0  0  0  0  0  0  0  0  0  0  0  0
   -3.6364    0.9411   -0.9018 H   0  0  0  0  0  0  0  0  0  0  0  0
   -1.8979   -0.8072    0.9090 H   0  0  0  0  0  0  0  0  0  0  0  0
   -1.8830   -0.8259   -0.8807 H   0  0  0  0  0  0  0  0  0  0  0  0
   -4.3877   -1.4262    0.9036 H   0  0  0  0  0  0  0  0  0  0  0  0
   -5.5149   -0.4112   -0.0120 H   0  0  0  0  0  0  0  0  0  0  0  0
   -4.3757   -1.4620   -0.8707 H   0  0  0  0  0  0  0  0  0  0  0  0
    0.8105    2.6801    0.0010 H   0  0  0  0  0  0  0  0  0  0  0  0
    3.8586   -0.0899   -0.0047 H   0  0  0  0  0  0  0  0  0  0  0  0
    1.4429   -3.0216    0.0001 H   0  0  0  0  0  0  0  0  0  0  0  0
    2.8993   -2.5583   -0.8949 H   0  0  0  0  0  0  0  0  0  0  0  0
    2.9037   -2.5587    0.8880 H   0  0  0  0  0  0  0  0  0  0  0  0
  1  5  1  0  0  0  0
  1  7  1  0  0  0  0
  2  7  2  0  0  0  0
  2  8  1  0  0  0  0
  3  9  2  0  0  0  0
  3 10  1  0  0  0  0
  4  5  1  0  0  0  0
  4  6  1  0  0  0  0
  4 12  1  0  0  0  0
  4 13  1  0  0  0  0
  5 14  1  0  0  0  0
  5 15  1  0  0  0  0
  6 16  1  0  0  0  0
  6 17  1  0  0  0  0
  6 18  1  0  0  0  0
  7  9  1  0  0  0  0
  8 10  2  0  0  0  0
  8 11  1  0  0  0  0
  9 19  1  0  0  0  0
 10 20  1  0  0  0  0
 11 21  1  0  0  0  0
 11 22  1  0  0  0  0
 11 23  1  0  0  0  0
M  END
> <PUBCHEM_COMPOUND_CID>
100240

> <PUBCHEM_CONFORMER_RMSD>
0.6

> <PUBCHEM_CONFORMER_DIVERSEORDER>
1
11
10
15
13
6
5
14
2
12
4
9
8
3
7

> <PUBCHEM_MMFF94_PARTIAL_CHARGES>
11
1 -0.36
10 0.16
11 0.14
19 0.15
2 -0.62
20 0.15
3 -0.62
5 0.28
7 0.39
8 0.17
9 0.16

> <PUBCHEM_EFFECTIVE_ROTOR_COUNT>
3

> <PUBCHEM_PHARMACOPHORE_FEATURES>
3
1 3 acceptor
1 6 hydrophobe
6 2 3 7 8 9 10 rings

> <PUBCHEM_HEAVY_ATOM_COUNT>
11

> <PUBCHEM_ATOM_DEF_STEREO_COUNT>
0

> <PUBCHEM_ATOM_UDEF_STEREO_COUNT>
0

> <PUBCHEM_BOND_DEF_STEREO_COUNT>
0

> <PUBCHEM_BOND_UDEF_STEREO_COUNT>
0

> <PUBCHEM_ISOTOPIC_ATOM_COUNT>
0

> <PUBCHEM_COMPONENT_COUNT>
1

> <PUBCHEM_CACTVS_TAUTO_COUNT>
1

> <PUBCHEM_CONFORMER_ID>
0001879000000001

> <PUBCHEM_MMFF94_ENERGY>
23.7027

> <PUBCHEM_FEATURE_SELFOVERLAP>
15.223

> <PUBCHEM_SHAPE_FINGERPRINT>
11471102 20 18410290337042757549
12932764 1 17489296512749047825
13380535 76 18263080066710901994
14144814 61 18342459231695631617
14251717 144 18410571799361581935
14252887 29 17918000451325844502
14325111 11 18410573994274298081
15442244 35 18196657289592996905
15477762 27 18409730664207398799
15501101 241 18334296465602475549
18186145 218 17749105552815326063
20201158 50 18334297573761982219
20279233 1 17894915156913114715
20645477 70 18410568466825793055
20871998 22 18055074263990323430
21501925 9 18337943502832755978
22485316 2 18412822504369829543
23402655 69 18411696591430496149
2748010 2 18122896539248237468
581208 293 18410570725397893545

> <PUBCHEM_SHAPE_MULTIPOLES>
210.54
6.46
1.82
0.59
8.16
0.55
0
1.78
-0.01
-1.66
0
0.01
0.01
0

> <PUBCHEM_SHAPE_SELFOVERLAP>
420.126

> <PUBCHEM_SHAPE_VOLUME>
125.3

> <PUBCHEM_COORDINATE_TYPE>
2
5
10

$$$$
