100495
  -OEChem-11232108443D

 32 32  0     0  0  0  0  0  0999 V2000
   -0.5711    0.0402    0.0673 O   0  0  0  0  0  0  0  0  0  0  0  0
    0.4722   -1.9157    0.6521 O   0  0  0  0  0  0  0  0  0  0  0  0
    2.9372   -2.0857   -0.5186 N   0  0  0  0  0  0  0  0  0  0  0  0
   -4.3206   -0.1985    0.0420 C   0  0  0  0  0  0  0  0  0  0  0  0
   -2.9301    0.4188   -0.0906 C   0  0  0  0  0  0  0  0  0  0  0  0
   -5.4128    0.8092   -0.3152 C   0  0  0  0  0  0  0  0  0  0  0  0
   -1.8347   -0.5904    0.2227 C   0  0  0  0  0  0  0  0  0  0  0  0
   -6.7973    0.1883   -0.2171 C   0  0  0  0  0  0  0  0  0  0  0  0
    1.8011   -0.0248    0.1349 C   0  0  0  0  0  0  0  0  0  0  0  0
    0.5337   -0.7380    0.3143 C   0  0  0  0  0  0  0  0  0  0  0  0
    2.9511   -0.6953   -0.2684 C   0  0  0  0  0  0  0  0  0  0  0  0
    1.8295    1.3446    0.3783 C   0  0  0  0  0  0  0  0  0  0  0  0
    4.1428    0.0115   -0.4304 C   0  0  0  0  0  0  0  0  0  0  0  0
    3.0212    2.0512    0.2164 C   0  0  0  0  0  0  0  0  0  0  0  0
    4.1778    1.3847   -0.1879 C   0  0  0  0  0  0  0  0  0  0  0  0
   -4.4692   -0.5556    1.0683 H   0  0  0  0  0  0  0  0  0  0  0  0
   -4.3984   -1.0712   -0.6179 H   0  0  0  0  0  0  0  0  0  0  0  0
   -2.8323    1.2828    0.5786 H   0  0  0  0  0  0  0  0  0  0  0  0
   -2.7827    0.8082   -1.1058 H   0  0  0  0  0  0  0  0  0  0  0  0
   -5.3563    1.6732    0.3570 H   0  0  0  0  0  0  0  0  0  0  0  0
   -5.2586    1.1806   -1.3350 H   0  0  0  0  0  0  0  0  0  0  0  0
   -1.9028   -1.4430   -0.4632 H   0  0  0  0  0  0  0  0  0  0  0  0
   -1.9396   -0.9493    1.2533 H   0  0  0  0  0  0  0  0  0  0  0  0
   -6.8970   -0.6587   -0.9034 H   0  0  0  0  0  0  0  0  0  0  0  0
   -6.9966   -0.1670    0.7990 H   0  0  0  0  0  0  0  0  0  0  0  0
   -7.5629    0.9266   -0.4753 H   0  0  0  0  0  0  0  0  0  0  0  0
    0.9476    1.8884    0.7058 H   0  0  0  0  0  0  0  0  0  0  0  0
    5.0516   -0.4954   -0.7448 H   0  0  0  0  0  0  0  0  0  0  0  0
    3.0496    3.1199    0.4079 H   0  0  0  0  0  0  0  0  0  0  0  0
    5.1058    1.9349   -0.3132 H   0  0  0  0  0  0  0  0  0  0  0  0
    2.0853   -2.6210   -0.4248 H   0  0  0  0  0  0  0  0  0  0  0  0
    3.7862   -2.5499   -0.8136 H   0  0  0  0  0  0  0  0  0  0  0  0
  1  7  1  0  0  0  0
  1 10  1  0  0  0  0
  2 10  2  0  0  0  0
  3 11  1  0  0  0  0
  3 31  1  0  0  0  0
  3 32  1  0  0  0  0
  4  5  1  0  0  0  0
  4  6  1  0  0  0  0
  4 16  1  0  0  0  0
  4 17  1  0  0  0  0
  5  7  1  0  0  0  0
  5 18  1  0  0  0  0
  5 19  1  0  0  0  0
  6  8  1  0  0  0  0
  6 20  1  0  0  0  0
  6 21  1  0  0  0  0
  7 22  1  0  0  0  0
  7 23  1  0  0  0  0
  8 24  1  0  0  0  0
  8 25  1  0  0  0  0
  8 26  1  0  0  0  0
  9 10  1  0  0  0  0
  9 11  1  0  0  0  0
  9 12  2  0  0  0  0
 11 13  2  0  0  0  0
 12 14  1  0  0  0  0
 12 27  1  0  0  0  0
 13 15  1  0  0  0  0
 13 28  1  0  0  0  0
 14 15  2  0  0  0  0
 14 29  1  0  0  0  0
 15 30  1  0  0  0  0
M  END
> <PUBCHEM_COMPOUND_CID>
100495

> <PUBCHEM_CONFORMER_RMSD>
0.8

> <PUBCHEM_CONFORMER_DIVERSEORDER>
1
27
19
32
50
52
35
16
72
38
46
28
51
26
21
47
34
57
39
37
80
70
44
20
3
12
29
60
76
36
43
5
9
79
55
42
13
10
2
58
48
68
14
22
53
49
11
30
4
56
45
17
40
8
74
41
31
65
18
61
78
54
66
25
15
73
77
7
59
6
63
64
69
71
23
33
24
75
62
67

> <PUBCHEM_MMFF94_PARTIAL_CHARGES>
17
1 -0.43
10 0.63
11 0.1
12 -0.15
13 -0.15
14 -0.15
15 -0.15
2 -0.57
27 0.15
28 0.15
29 0.15
3 -0.9
30 0.15
31 0.4
32 0.4
7 0.28
9 0.09

> <PUBCHEM_EFFECTIVE_ROTOR_COUNT>
6

> <PUBCHEM_PHARMACOPHORE_FEATURES>
5
1 2 acceptor
1 3 cation
1 3 donor
1 8 hydrophobe
6 9 11 12 13 14 15 rings

> <PUBCHEM_HEAVY_ATOM_COUNT>
15

> <PUBCHEM_ATOM_DEF_STEREO_COUNT>
0

> <PUBCHEM_ATOM_UDEF_STEREO_COUNT>
0

> <PUBCHEM_BOND_DEF_STEREO_COUNT>
0

> <PUBCHEM_BOND_UDEF_STEREO_COUNT>
0

> <PUBCHEM_ISOTOPIC_ATOM_COUNT>
0

> <PUBCHEM_COMPONENT_COUNT>
1

> <PUBCHEM_CACTVS_TAUTO_COUNT>
2

> <PUBCHEM_CONFORMER_ID>
0001888F00000001

> <PUBCHEM_MMFF94_ENERGY>
40.2271

> <PUBCHEM_FEATURE_SELFOVERLAP>
25.371

> <PUBCHEM_SHAPE_FINGERPRINT>
10693767 8 17916311541737654558
11287383 113 18408605881530071427
11471102 20 18413393142082589048
12730499 353 18408329895036580315
13081056 2 18334574625323330549
13167372 99 18200880557169408745
13836976 161 17847062172814755070
13955234 65 18261388889142264779
14528608 73 18411132554987316997
17834072 33 18273210915905487599
18186145 218 18335413586564269702
20645477 56 18187083975283801759
20645477 70 18271528602315918535
212847 35 18259703406625615132
221357 26 18341612581798828253
22224240 67 8141792847439570148
22289505 5 18412260605966406404
23402539 116 18341324591139945084
23402655 69 18272089426202116084
23590187 302 17775282776725015657
25 1 18410292545120047814
29717793 49 17275111604291891973
3060560 45 18060144236860250854
3545911 37 18409731781167888573
4047638 21 18334576862900837472
4072396 5 18411971469748669522
42630746 31 18412260623341187866
42788 4 18409729556643835141
495365 180 17988352776064984784
522135 26 18342738502974246238
6025842 7 18272090478669960294
7164475 11 17630900300002402904
77779 3 18412826885109805903
8272917 22 18272937089527338871

> <PUBCHEM_SHAPE_MULTIPOLES>
291.97
12.75
1.73
0.69
23.29
0.15
0
-3.51
-2.09
-2.17
0.07
-0.09
0.04
0.4

> <PUBCHEM_SHAPE_SELFOVERLAP>
588.956

> <PUBCHEM_SHAPE_VOLUME>
171.1

> <PUBCHEM_COORDINATE_TYPE>
2
5
10

$$$$
