100968
  -OEChem-11232109043D

 42 42  0     1  0  0  0  0  0999 V2000
    0.6071   -1.9518    0.0147 O   0  0  0  0  0  0  0  0  0  0  0  0
   -4.1376    1.9066    0.7106 O   0  0  0  0  0  0  0  0  0  0  0  0
   -1.0602   -1.3361    1.4904 O   0  0  0  0  0  0  0  0  0  0  0  0
   -0.6431    1.2764   -0.0594 C   0  0  2  0  0  0  0  0  0  0  0  0
   -0.7736   -0.1606   -0.5953 C   0  0  2  0  0  0  0  0  0  0  0  0
    0.7272    1.5515    0.5611 C   0  0  0  0  0  0  0  0  0  0  0  0
   -1.7677    1.6227    0.9183 C   0  0  0  0  0  0  0  0  0  0  0  0
    1.8504    1.2435   -0.4239 C   0  0  0  0  0  0  0  0  0  0  0  0
   -2.1719   -0.4601   -1.0825 C   0  0  0  0  0  0  0  0  0  0  0  0
   -3.1275    1.3145    0.3329 C   0  0  0  0  0  0  0  0  0  0  0  0
    3.2175    1.5499    0.1898 C   0  0  0  0  0  0  0  0  0  0  0  0
   -3.2484    0.2296   -0.6725 C   0  0  0  0  0  0  0  0  0  0  0  0
   -0.4505   -1.2027    0.4379 C   0  0  0  0  0  0  0  0  0  0  0  0
   -2.3060   -1.5679   -2.0911 C   0  0  0  0  0  0  0  0  0  0  0  0
    4.3503    1.2122   -0.7793 C   0  0  0  0  0  0  0  0  0  0  0  0
    5.7122    1.4840   -0.1606 C   0  0  0  0  0  0  0  0  0  0  0  0
    1.0235   -2.9884    0.9091 C   0  0  0  0  0  0  0  0  0  0  0  0
    2.1984   -3.7232    0.2997 C   0  0  0  0  0  0  0  0  0  0  0  0
   -0.7538    1.9503   -0.9232 H   0  0  0  0  0  0  0  0  0  0  0  0
   -0.1056   -0.2712   -1.4585 H   0  0  0  0  0  0  0  0  0  0  0  0
    0.7838    2.6066    0.8577 H   0  0  0  0  0  0  0  0  0  0  0  0
    0.8627    0.9641    1.4776 H   0  0  0  0  0  0  0  0  0  0  0  0
   -1.6708    1.0891    1.8689 H   0  0  0  0  0  0  0  0  0  0  0  0
   -1.7342    2.6973    1.1356 H   0  0  0  0  0  0  0  0  0  0  0  0
    1.8515    0.1912   -0.7179 H   0  0  0  0  0  0  0  0  0  0  0  0
    1.7176    1.8368   -1.3368 H   0  0  0  0  0  0  0  0  0  0  0  0
    3.2705    2.6109    0.4628 H   0  0  0  0  0  0  0  0  0  0  0  0
    3.3425    0.9715    1.1135 H   0  0  0  0  0  0  0  0  0  0  0  0
   -4.2442    0.0113   -1.0428 H   0  0  0  0  0  0  0  0  0  0  0  0
   -3.3439   -1.7121   -2.4098 H   0  0  0  0  0  0  0  0  0  0  0  0
   -1.9548   -2.5156   -1.6706 H   0  0  0  0  0  0  0  0  0  0  0  0
   -1.7140   -1.3424   -2.9841 H   0  0  0  0  0  0  0  0  0  0  0  0
    4.2452    1.8045   -1.6957 H   0  0  0  0  0  0  0  0  0  0  0  0
    4.2928    0.1559   -1.0671 H   0  0  0  0  0  0  0  0  0  0  0  0
    5.8617    0.8800    0.7400 H   0  0  0  0  0  0  0  0  0  0  0  0
    6.5073    1.2369   -0.8710 H   0  0  0  0  0  0  0  0  0  0  0  0
    5.8157    2.5392    0.1119 H   0  0  0  0  0  0  0  0  0  0  0  0
    0.1940   -3.6858    1.0712 H   0  0  0  0  0  0  0  0  0  0  0  0
    1.3198   -2.5462    1.8668 H   0  0  0  0  0  0  0  0  0  0  0  0
    2.5441   -4.5239    0.9594 H   0  0  0  0  0  0  0  0  0  0  0  0
    1.9225   -4.1558   -0.6677 H   0  0  0  0  0  0  0  0  0  0  0  0
    3.0289   -3.0339    0.1141 H   0  0  0  0  0  0  0  0  0  0  0  0
  1 13  1  0  0  0  0
  1 17  1  0  0  0  0
  2 10  2  0  0  0  0
  3 13  2  0  0  0  0
  4  5  1  0  0  0  0
  4  6  1  0  0  0  0
  4  7  1  0  0  0  0
  4 19  1  0  0  0  0
  5  9  1  0  0  0  0
  5 13  1  0  0  0  0
  5 20  1  0  0  0  0
  6  8  1  0  0  0  0
  6 21  1  0  0  0  0
  6 22  1  0  0  0  0
  7 10  1  0  0  0  0
  7 23  1  0  0  0  0
  7 24  1  0  0  0  0
  8 11  1  0  0  0  0
  8 25  1  0  0  0  0
  8 26  1  0  0  0  0
  9 12  2  0  0  0  0
  9 14  1  0  0  0  0
 10 12  1  0  0  0  0
 11 15  1  0  0  0  0
 11 27  1  0  0  0  0
 11 28  1  0  0  0  0
 12 29  1  0  0  0  0
 14 30  1  0  0  0  0
 14 31  1  0  0  0  0
 14 32  1  0  0  0  0
 15 16  1  0  0  0  0
 15 33  1  0  0  0  0
 15 34  1  0  0  0  0
 16 35  1  0  0  0  0
 16 36  1  0  0  0  0
 16 37  1  0  0  0  0
 17 18  1  0  0  0  0
 17 38  1  0  0  0  0
 17 39  1  0  0  0  0
 18 40  1  0  0  0  0
 18 41  1  0  0  0  0
 18 42  1  0  0  0  0
M  END
> <PUBCHEM_COMPOUND_CID>
100968

> <PUBCHEM_CONFORMER_RMSD>
0.8

> <PUBCHEM_CONFORMER_DIVERSEORDER>
1
251
269
260
277
35
149
229
259
122
18
264
25
242
32
144
209
235
139
241
232
267
221
91
215
175
11
253
112
237
127
276
234
176
55
208
163
228
58
273
77
123
190
6
59
99
152
17
171
173
129
86
28
178
64
37
65
68
249
266
184
210
261
72
23
116
4
3
49
211
56
270
272
222
26
206
134
22
81
217
88
34
262
263
10
186
133
220
247
226
16
248
193
254
42
19
14
117
113
30
52
198
2
255
150
13
53
157
39
15
119
79
47
105
155
252
36
218
27
196
90
167
161
257
187
151
197
50
147
46
111
233
20
98
131
250
154
9
100
40
61
106
243
169
51
271
207
268
212
110
201
103
104
239
78
146
101
191
7
128
21
168
41
181
118
109
148
97
108
132
192
48
75
177
83
143
224
12
73
204
182
89
66
126
202
189
185
114
5
230
256
245
95
71
45
231
107
265
87
8
24
57
213
70
244
179
145
240
54
164
166
33
274
82
31
159
62
205
80
137
172
180
130
38
258
124
102
69
199
92
67
85
125
246
153
275
76
194
120
142
94
165
174
138
60
84
140
44
162
223
160
195
93
136
141
214
200
238
236
156
29
96
216
74
203
188
158
183
135
227
170
43
225
121
219
63
115

> <PUBCHEM_MMFF94_PARTIAL_CHARGES>
12
1 -0.43
10 0.49
12 -0.14
13 0.66
14 0.14
17 0.28
2 -0.57
29 0.15
3 -0.57
5 0.2
7 0.06
9 -0.28

> <PUBCHEM_EFFECTIVE_ROTOR_COUNT>
7.6

> <PUBCHEM_PHARMACOPHORE_FEATURES>
5
1 16 hydrophobe
1 2 acceptor
1 3 acceptor
4 6 8 11 15 hydrophobe
6 4 5 7 9 10 12 rings

> <PUBCHEM_HEAVY_ATOM_COUNT>
18

> <PUBCHEM_ATOM_DEF_STEREO_COUNT>
0

> <PUBCHEM_ATOM_UDEF_STEREO_COUNT>
2

> <PUBCHEM_BOND_DEF_STEREO_COUNT>
0

> <PUBCHEM_BOND_UDEF_STEREO_COUNT>
0

> <PUBCHEM_ISOTOPIC_ATOM_COUNT>
0

> <PUBCHEM_COMPONENT_COUNT>
1

> <PUBCHEM_CACTVS_TAUTO_COUNT>
13

> <PUBCHEM_CONFORMER_ID>
00018A6800000001

> <PUBCHEM_MMFF94_ENERGY>
16.3053

> <PUBCHEM_FEATURE_SELFOVERLAP>
25.372

> <PUBCHEM_SHAPE_FINGERPRINT>
10062212 137 18341316838787448022
10756046 70 17984124973441017023
10989021 7 17977099067953220250
11315181 36 18269270330862477700
12173636 292 18118415165676184492
12423570 1 11702893383602051445
12592029 89 18336272257932811664
12644460 14 18194695778113297105
14022349 108 18267311919457128073
16945 1 17906736899966364343
17980427 26 17316460822915400017
18785283 64 18114475456979419938
19784866 140 17986093314166923871
200 152 13326582847340755252
20645476 183 17823127003379823042
21665056 4 18191307276549752886
23402539 116 18342173406002050452
23419403 2 17536352204049814451
23558518 356 18055069032488242981
23566358 27 18339359647902936063
23598291 2 18200017448535303879
25147074 1 18130216048706020525
266924 1 18271228479118424247
4175511 318 17023175085008232892
43471831 8 18409724079901227802
474 4 18335133146928125370
90316 7 16823048218912825762
9709674 26 18128826420574600036

> <PUBCHEM_SHAPE_MULTIPOLES>
352.82
7.58
3.49
1.27
9.19
4.03
0.33
-5.65
1.43
1.79
-0.98
-0.87
0.47
-1.45

> <PUBCHEM_SHAPE_SELFOVERLAP>
697.528

> <PUBCHEM_SHAPE_VOLUME>
209.6

> <PUBCHEM_COORDINATE_TYPE>
2
5
10

$$$$
