100936
  -OEChem-11232108423D

 39 39  0     0  0  0  0  0  0999 V2000
    3.0115    0.6048    0.2499 O   0  0  0  0  0  0  0  0  0  0  0  0
    4.1767   -1.3742   -0.0424 O   0  0  0  0  0  0  0  0  0  0  0  0
    1.9077    0.1779   -0.5494 C   0  0  0  0  0  0  0  0  0  0  0  0
    1.1584   -0.9370    0.2023 C   0  0  0  0  0  0  0  0  0  0  0  0
    1.0678    1.4183   -0.9075 C   0  0  0  0  0  0  0  0  0  0  0  0
   -0.0864   -1.4516   -0.5246 C   0  0  0  0  0  0  0  0  0  0  0  0
    0.4479    2.1451    0.2973 C   0  0  0  0  0  0  0  0  0  0  0  0
   -1.0341   -2.1950    0.4202 C   0  0  0  0  0  0  0  0  0  0  0  0
   -0.8981    2.8196   -0.0093 C   0  0  0  0  0  0  0  0  0  0  0  0
   -2.4410   -2.3903   -0.1512 C   0  0  0  0  0  0  0  0  0  0  0  0
   -2.0633    1.8656   -0.3247 C   0  0  0  0  0  0  0  0  0  0  0  0
   -3.2161   -1.1342   -0.5869 C   0  0  0  0  0  0  0  0  0  0  0  0
   -2.4104    0.9170    0.8292 C   0  0  0  0  0  0  0  0  0  0  0  0
   -3.5166   -0.0970    0.5055 C   0  0  0  0  0  0  0  0  0  0  0  0
    3.8958   -0.3692    0.5916 C   0  0  0  0  0  0  0  0  0  0  0  0
    2.3022   -0.2271   -1.4910 H   0  0  0  0  0  0  0  0  0  0  0  0
    0.8970   -0.5815    1.2060 H   0  0  0  0  0  0  0  0  0  0  0  0
    1.8063   -1.8019    0.3830 H   0  0  0  0  0  0  0  0  0  0  0  0
    0.3100    1.1455   -1.6461 H   0  0  0  0  0  0  0  0  0  0  0  0
    1.7218    2.1390   -1.4173 H   0  0  0  0  0  0  0  0  0  0  0  0
    0.2115   -2.1115   -1.3482 H   0  0  0  0  0  0  0  0  0  0  0  0
   -0.6169   -0.6194   -0.9798 H   0  0  0  0  0  0  0  0  0  0  0  0
    1.1522    2.9222    0.6222 H   0  0  0  0  0  0  0  0  0  0  0  0
    0.3334    1.4862    1.1601 H   0  0  0  0  0  0  0  0  0  0  0  0
   -1.1116   -1.6826    1.3844 H   0  0  0  0  0  0  0  0  0  0  0  0
   -0.6051   -3.1798    0.6445 H   0  0  0  0  0  0  0  0  0  0  0  0
   -0.7681    3.5063   -0.8548 H   0  0  0  0  0  0  0  0  0  0  0  0
   -1.1781    3.4385    0.8523 H   0  0  0  0  0  0  0  0  0  0  0  0
   -3.0404   -2.9274    0.5949 H   0  0  0  0  0  0  0  0  0  0  0  0
   -2.3705   -3.0586   -1.0192 H   0  0  0  0  0  0  0  0  0  0  0  0
   -1.8388    1.3083   -1.2368 H   0  0  0  0  0  0  0  0  0  0  0  0
   -2.9484    2.4723   -0.5545 H   0  0  0  0  0  0  0  0  0  0  0  0
   -4.1869   -1.4923   -0.9572 H   0  0  0  0  0  0  0  0  0  0  0  0
   -2.7406   -0.6703   -1.4553 H   0  0  0  0  0  0  0  0  0  0  0  0
   -2.7475    1.5241    1.6794 H   0  0  0  0  0  0  0  0  0  0  0  0
   -1.5230    0.3911    1.1762 H   0  0  0  0  0  0  0  0  0  0  0  0
   -4.4049    0.4697    0.1972 H   0  0  0  0  0  0  0  0  0  0  0  0
   -3.7963   -0.6210    1.4278 H   0  0  0  0  0  0  0  0  0  0  0  0
    4.4355   -0.0461    1.4952 H   0  0  0  0  0  0  0  0  0  0  0  0
  1  3  1  0  0  0  0
  1 15  1  0  0  0  0
  2 15  2  0  0  0  0
  3  4  1  0  0  0  0
  3  5  1  0  0  0  0
  3 16  1  0  0  0  0
  4  6  1  0  0  0  0
  4 17  1  0  0  0  0
  4 18  1  0  0  0  0
  5  7  1  0  0  0  0
  5 19  1  0  0  0  0
  5 20  1  0  0  0  0
  6  8  1  0  0  0  0
  6 21  1  0  0  0  0
  6 22  1  0  0  0  0
  7  9  1  0  0  0  0
  7 23  1  0  0  0  0
  7 24  1  0  0  0  0
  8 10  1  0  0  0  0
  8 25  1  0  0  0  0
  8 26  1  0  0  0  0
  9 11  1  0  0  0  0
  9 27  1  0  0  0  0
  9 28  1  0  0  0  0
 10 12  1  0  0  0  0
 10 29  1  0  0  0  0
 10 30  1  0  0  0  0
 11 13  1  0  0  0  0
 11 31  1  0  0  0  0
 11 32  1  0  0  0  0
 12 14  1  0  0  0  0
 12 33  1  0  0  0  0
 12 34  1  0  0  0  0
 13 14  1  0  0  0  0
 13 35  1  0  0  0  0
 13 36  1  0  0  0  0
 14 37  1  0  0  0  0
 14 38  1  0  0  0  0
 15 39  1  0  0  0  0
M  END
> <PUBCHEM_COMPOUND_CID>
100936

> <PUBCHEM_CONFORMER_RMSD>
0.6

> <PUBCHEM_CONFORMER_DIVERSEORDER>
1
22
26
39
57
92
95
67
36
34
96
82
61
76
73
37
24
69
28
12
66
38
86
9
79
45
35
29
17
104
84
107
109
8
47
80
65
100
2
101
40
102
50
56
72
70
74
27
58
91
105
41
75
62
14
31
5
4
98
7
13
64
44
94
54
25
23
81
33
106
19
103
21
55
83
77
20
51
10
16
99
97
60
71
90
18
46
59
93
42
32
87
85
11
15
49
108
89
78
68
88
6
53
30
52
3
43
63
48

> <PUBCHEM_MMFF94_PARTIAL_CHARGES>
5
1 -0.43
15 0.66
2 -0.57
3 0.28
39 0.06

> <PUBCHEM_EFFECTIVE_ROTOR_COUNT>
4.4

> <PUBCHEM_PHARMACOPHORE_FEATURES>
1
1 2 acceptor

> <PUBCHEM_HEAVY_ATOM_COUNT>
15

> <PUBCHEM_ATOM_DEF_STEREO_COUNT>
0

> <PUBCHEM_ATOM_UDEF_STEREO_COUNT>
0

> <PUBCHEM_BOND_DEF_STEREO_COUNT>
0

> <PUBCHEM_BOND_UDEF_STEREO_COUNT>
0

> <PUBCHEM_ISOTOPIC_ATOM_COUNT>
0

> <PUBCHEM_COMPONENT_COUNT>
1

> <PUBCHEM_CACTVS_TAUTO_COUNT>
1

> <PUBCHEM_CONFORMER_ID>
00018A4800000001

> <PUBCHEM_MMFF94_ENERGY>
28.2336

> <PUBCHEM_FEATURE_SELFOVERLAP>
5.074

> <PUBCHEM_SHAPE_FINGERPRINT>
10493431 412 18127701426716342673
108231 29 18272366439040654984
11132069 177 18342739598201488745
13140716 1 18339368590340623723
1420 336 18267028438973283123
14251711 518 18119251654007497443
14251745 187 18342729749825668130
15196674 1 18410856602995676905
15442244 35 18409449202374085302
17977361 122 18408598145750814755
192875 21 18271236248656175215
19930374 2 17753603542693623668
20261772 1 18338811043129032723
20388701 513 18412259528203395340
20559304 39 17977387457895875110
21160774 45 18263355902342929053
21249577 28 18335987557361632900
21634736 98 18262809591393356380
232386 152 18410862082973241213
2334 1 17978516665059216069
23380061 330 18413671305228187813
23402539 116 18272642468130631679
23419403 2 17414966288269256137
23559900 14 18342734097071296496
257057 1 18196366155176529351
2748010 2 17905060148649334213
2897 32 18336553720319889269
57005193 9 18264764368549056389
58554843 112 17765713907554588737
66348 1 18051420866081736893
7471813 234 17768792509900014815
8809292 202 18409731759255130778

> <PUBCHEM_SHAPE_MULTIPOLES>
296.95
6.2
3.06
0.85
3.78
0.79
-0.02
-2.41
0.74
-1.46
-0.08
-0.08
0.06
-0.33

> <PUBCHEM_SHAPE_SELFOVERLAP>
561.108

> <PUBCHEM_SHAPE_VOLUME>
181

> <PUBCHEM_COORDINATE_TYPE>
2
5
10

$$$$
