100938
  -OEChem-11232108403D

 48 51  0     1  0  0  0  0  0999 V2000
   -2.4818    0.3246   -0.2491 O   0  0  0  0  0  0  0  0  0  0  0  0
   -4.0377    1.7909    0.6263 O   0  0  0  0  0  0  0  0  0  0  0  0
    0.2827   -0.2879   -0.2899 C   0  0  2  0  0  0  0  0  0  0  0  0
    1.6261   -0.1426    0.3999 C   0  0  1  0  0  0  0  0  0  0  0  0
    0.3730   -0.2073    1.2151 C   0  0  2  0  0  0  0  0  0  0  0  0
    0.1055   -1.7623   -0.6662 C   0  0  0  0  0  0  0  0  0  0  0  0
    0.9254   -2.3167    0.5746 C   0  0  1  0  0  0  0  0  0  0  0  0
    2.2675   -1.5185    0.4972 C   0  0  0  0  0  0  0  0  0  0  0  0
    0.2641   -1.5983    1.7919 C   0  0  0  0  0  0  0  0  0  0  0  0
    2.4519    1.1184    0.2755 C   0  0  0  0  0  0  0  0  0  0  0  0
   -0.3124    0.8208   -1.1177 C   0  0  2  0  0  0  0  0  0  0  0  0
    1.5670    2.2990   -0.2048 C   0  0  0  0  0  0  0  0  0  0  0  0
    0.7076    1.9319   -1.4176 C   0  0  0  0  0  0  0  0  0  0  0  0
   -1.3582   -2.2163   -0.6733 C   0  0  0  0  0  0  0  0  0  0  0  0
    0.7421   -2.1160   -2.0166 C   0  0  0  0  0  0  0  0  0  0  0  0
    3.6080    0.9061   -0.7248 C   0  0  0  0  0  0  0  0  0  0  0  0
    3.0654    1.4846    1.6400 C   0  0  0  0  0  0  0  0  0  0  0  0
   -1.5864    1.3925   -0.4881 C   0  0  0  0  0  0  0  0  0  0  0  0
   -3.6842    0.6611    0.3171 C   0  0  0  0  0  0  0  0  0  0  0  0
   -4.5256   -0.5640    0.5104 C   0  0  0  0  0  0  0  0  0  0  0  0
    0.0195    0.6183    1.8011 H   0  0  0  0  0  0  0  0  0  0  0  0
    1.0189   -3.4006    0.6520 H   0  0  0  0  0  0  0  0  0  0  0  0
    2.8679   -1.6315    1.4061 H   0  0  0  0  0  0  0  0  0  0  0  0
    2.8716   -1.7869   -0.3717 H   0  0  0  0  0  0  0  0  0  0  0  0
   -0.7654   -1.9012    1.9889 H   0  0  0  0  0  0  0  0  0  0  0  0
    0.8531   -1.7044    2.7089 H   0  0  0  0  0  0  0  0  0  0  0  0
   -0.6104    0.3948   -2.0846 H   0  0  0  0  0  0  0  0  0  0  0  0
    2.1985    3.1594   -0.4600 H   0  0  0  0  0  0  0  0  0  0  0  0
    0.9107    2.6371    0.6071 H   0  0  0  0  0  0  0  0  0  0  0  0
    0.1912    2.8275   -1.7838 H   0  0  0  0  0  0  0  0  0  0  0  0
    1.3574    1.6059   -2.2382 H   0  0  0  0  0  0  0  0  0  0  0  0
   -1.9077   -1.7739   -1.5111 H   0  0  0  0  0  0  0  0  0  0  0  0
   -1.4091   -3.3046   -0.7976 H   0  0  0  0  0  0  0  0  0  0  0  0
   -1.8993   -1.9829    0.2438 H   0  0  0  0  0  0  0  0  0  0  0  0
    1.7127   -1.6370   -2.1732 H   0  0  0  0  0  0  0  0  0  0  0  0
    0.8738   -3.1991   -2.1114 H   0  0  0  0  0  0  0  0  0  0  0  0
    0.1074   -1.7846   -2.8465 H   0  0  0  0  0  0  0  0  0  0  0  0
    3.2503    0.5252   -1.6869 H   0  0  0  0  0  0  0  0  0  0  0  0
    4.3354    0.1796   -0.3445 H   0  0  0  0  0  0  0  0  0  0  0  0
    4.1502    1.8401   -0.9100 H   0  0  0  0  0  0  0  0  0  0  0  0
    3.6714    2.3949    1.5701 H   0  0  0  0  0  0  0  0  0  0  0  0
    3.7089    0.6814    2.0162 H   0  0  0  0  0  0  0  0  0  0  0  0
    2.2898    1.6574    2.3944 H   0  0  0  0  0  0  0  0  0  0  0  0
   -2.0500    2.1093   -1.1769 H   0  0  0  0  0  0  0  0  0  0  0  0
   -1.3700    1.9088    0.4537 H   0  0  0  0  0  0  0  0  0  0  0  0
   -4.0880   -1.1931    1.2890 H   0  0  0  0  0  0  0  0  0  0  0  0
   -4.6046   -1.1141   -0.4308 H   0  0  0  0  0  0  0  0  0  0  0  0
   -5.5322   -0.2670    0.8184 H   0  0  0  0  0  0  0  0  0  0  0  0
  1 18  1  0  0  0  0
  1 19  1  0  0  0  0
  2 19  2  0  0  0  0
  3  4  1  0  0  0  0
  3  5  1  0  0  0  0
  3  6  1  0  0  0  0
  3 11  1  0  0  0  0
  4  5  1  0  0  0  0
  4  8  1  0  0  0  0
  4 10  1  0  0  0  0
  5  9  1  0  0  0  0
  5 21  1  0  0  0  0
  6  7  1  0  0  0  0
  6 14  1  0  0  0  0
  6 15  1  0  0  0  0
  7  8  1  0  0  0  0
  7  9  1  0  0  0  0
  7 22  1  0  0  0  0
  8 23  1  0  0  0  0
  8 24  1  0  0  0  0
  9 25  1  0  0  0  0
  9 26  1  0  0  0  0
 10 12  1  0  0  0  0
 10 16  1  0  0  0  0
 10 17  1  0  0  0  0
 11 13  1  0  0  0  0
 11 18  1  0  0  0  0
 11 27  1  0  0  0  0
 12 13  1  0  0  0  0
 12 28  1  0  0  0  0
 12 29  1  0  0  0  0
 13 30  1  0  0  0  0
 13 31  1  0  0  0  0
 14 32  1  0  0  0  0
 14 33  1  0  0  0  0
 14 34  1  0  0  0  0
 15 35  1  0  0  0  0
 15 36  1  0  0  0  0
 15 37  1  0  0  0  0
 16 38  1  0  0  0  0
 16 39  1  0  0  0  0
 16 40  1  0  0  0  0
 17 41  1  0  0  0  0
 17 42  1  0  0  0  0
 17 43  1  0  0  0  0
 18 44  1  0  0  0  0
 18 45  1  0  0  0  0
 19 20  1  0  0  0  0
 20 46  1  0  0  0  0
 20 47  1  0  0  0  0
 20 48  1  0  0  0  0
M  END
> <PUBCHEM_COMPOUND_CID>
100938

> <PUBCHEM_CONFORMER_RMSD>
0.6

> <PUBCHEM_CONFORMER_DIVERSEORDER>
10
8
29
40
37
20
39
31
24
11
34
26
41
17
15
22
30
25
2
44
13
35
1
27
38
43
28
19
36
6
3
21
42
32
4
18
14
9
5
12
33
16
23
7

> <PUBCHEM_MMFF94_PARTIAL_CHARGES>
14
1 -0.43
10 0.09
11 0.09
18 0.28
19 0.66
2 -0.57
20 0.06
21 0.1
3 -0.19
4 -0.19
5 -0.19
6 0.09
8 0.09
9 0.09

> <PUBCHEM_EFFECTIVE_ROTOR_COUNT>
4.4

> <PUBCHEM_PHARMACOPHORE_FEATURES>
5
1 2 acceptor
3 10 16 17 hydrophobe
3 6 14 15 hydrophobe
7 3 4 5 10 11 12 13 rings
7 3 4 5 6 7 8 9 rings

> <PUBCHEM_HEAVY_ATOM_COUNT>
20

> <PUBCHEM_ATOM_DEF_STEREO_COUNT>
0

> <PUBCHEM_ATOM_UDEF_STEREO_COUNT>
5

> <PUBCHEM_BOND_DEF_STEREO_COUNT>
0

> <PUBCHEM_BOND_UDEF_STEREO_COUNT>
0

> <PUBCHEM_ISOTOPIC_ATOM_COUNT>
0

> <PUBCHEM_COMPONENT_COUNT>
1

> <PUBCHEM_CACTVS_TAUTO_COUNT>
1

> <PUBCHEM_CONFORMER_ID>
00018A4A0000000A

> <PUBCHEM_MMFF94_ENERGY>
80.5375

> <PUBCHEM_FEATURE_SELFOVERLAP>
25.539

> <PUBCHEM_SHAPE_FINGERPRINT>
10863032 1 17845651568210603814
10906281 52 17041170474103420892
10922049 32 18411989082570838532
10948715 1 18271527597351235928
11067466 332 17750250105369574549
11578080 2 17199392834529363856
12011746 2 17894916251649707572
12491281 212 18265893738382967374
12788726 201 17545039767617064126
13140716 1 18046057426454456312
14142880 1 17907272683967321744
14223421 5 18263641771450958773
14617773 55 17761475290076213300
14787075 74 17678747734950769106
14790565 3 18188221999578405908
15906896 17 17977951507392735174
16945 1 18263628693048416492
19591789 44 18335983060889797478
20600515 1 16896230617846508028
20691752 17 17531258218650263213
20905425 154 18190459359505559716
21524375 3 18338236080168142161
229495 10 15069163710903162404
23419403 2 16083868735123289538
23558518 356 17977662344371752316
2748010 2 17973701611557360260
276578 36 18412824689896389936
427121 178 18272093833112875145
576247 118 17264973892351140007
7364860 26 18128824053525276293
7832392 63 18341327889680148548
81228 2 17761755665557074700

> <PUBCHEM_SHAPE_MULTIPOLES>
399.85
5.52
2.76
1.53
5.83
0.58
-0.06
-2.82
1.55
-0.39
-0.43
-0.58
0.36
-0.14

> <PUBCHEM_SHAPE_SELFOVERLAP>
868.618

> <PUBCHEM_SHAPE_VOLUME>
226.1

> <PUBCHEM_COORDINATE_TYPE>
2
5
10

$$$$
