100941
  -OEChem-11232109433D

 45 48  0     1  0  0  0  0  0999 V2000
   -2.7314   -0.1033   -0.1109 O   0  0  0  0  0  0  0  0  0  0  0  0
   -4.3701   -1.4687    0.7894 O   0  0  0  0  0  0  0  0  0  0  0  0
    0.0561    0.3186   -0.2619 C   0  0  1  0  0  0  0  0  0  0  0  0
    1.4096    0.0678    0.3760 C   0  0  2  0  0  0  0  0  0  0  0  0
    0.1933    0.2015    1.2372 C   0  0  1  0  0  0  0  0  0  0  0  0
   -0.0321    1.8090   -0.6051 C   0  0  0  0  0  0  0  0  0  0  0  0
    0.8673    2.2807    0.6148 C   0  0  2  0  0  0  0  0  0  0  0  0
    2.1475    1.3943    0.4743 C   0  0  0  0  0  0  0  0  0  0  0  0
    0.2011    1.5847    1.8423 C   0  0  0  0  0  0  0  0  0  0  0  0
    2.1414   -1.2439    0.1994 C   0  0  0  0  0  0  0  0  0  0  0  0
   -0.6429   -0.7297   -1.0870 C   0  0  1  0  0  0  0  0  0  0  0  0
    1.1610   -2.3511   -0.2699 C   0  0  0  0  0  0  0  0  0  0  0  0
    0.2871   -1.9015   -1.4438 C   0  0  0  0  0  0  0  0  0  0  0  0
   -1.4603    2.3622   -0.5506 C   0  0  0  0  0  0  0  0  0  0  0  0
    0.5796    2.1460   -1.9711 C   0  0  0  0  0  0  0  0  0  0  0  0
    3.2739   -1.0911   -0.8381 C   0  0  0  0  0  0  0  0  0  0  0  0
    2.7754   -1.6788    1.5338 C   0  0  0  0  0  0  0  0  0  0  0  0
   -1.9301   -1.2261   -0.4216 C   0  0  0  0  0  0  0  0  0  0  0  0
   -3.9264   -0.3705    0.4928 C   0  0  0  0  0  0  0  0  0  0  0  0
   -0.1961   -0.6098    1.8204 H   0  0  0  0  0  0  0  0  0  0  0  0
    1.0381    3.3538    0.7080 H   0  0  0  0  0  0  0  0  0  0  0  0
    2.7378    1.6383   -0.4112 H   0  0  0  0  0  0  0  0  0  0  0  0
    2.7858    1.4476    1.3626 H   0  0  0  0  0  0  0  0  0  0  0  0
    0.8276    1.6317    2.7391 H   0  0  0  0  0  0  0  0  0  0  0  0
   -0.7975    1.9535    2.0814 H   0  0  0  0  0  0  0  0  0  0  0  0
   -0.9449   -0.2646   -2.0345 H   0  0  0  0  0  0  0  0  0  0  0  0
    0.5120   -2.6604    0.5590 H   0  0  0  0  0  0  0  0  0  0  0  0
    1.7225   -3.2472   -0.5635 H   0  0  0  0  0  0  0  0  0  0  0  0
    0.9285   -1.6038   -2.2816 H   0  0  0  0  0  0  0  0  0  0  0  0
   -0.3026   -2.7520   -1.8071 H   0  0  0  0  0  0  0  0  0  0  0  0
   -2.0660    1.9784   -1.3788 H   0  0  0  0  0  0  0  0  0  0  0  0
   -1.9895    2.1435    0.3782 H   0  0  0  0  0  0  0  0  0  0  0  0
   -1.4398    3.4540   -0.6494 H   0  0  0  0  0  0  0  0  0  0  0  0
   -0.1050    1.8757   -2.7833 H   0  0  0  0  0  0  0  0  0  0  0  0
    0.7823    3.2193   -2.0510 H   0  0  0  0  0  0  0  0  0  0  0  0
    1.5089    1.6052   -2.1716 H   0  0  0  0  0  0  0  0  0  0  0  0
    3.7435   -2.0560   -1.0594 H   0  0  0  0  0  0  0  0  0  0  0  0
    2.9101   -0.6671   -1.7798 H   0  0  0  0  0  0  0  0  0  0  0  0
    4.0626   -0.4240   -0.4715 H   0  0  0  0  0  0  0  0  0  0  0  0
    3.3142   -2.6269    1.4258 H   0  0  0  0  0  0  0  0  0  0  0  0
    3.4856   -0.9293    1.9007 H   0  0  0  0  0  0  0  0  0  0  0  0
    2.0166   -1.8135    2.3127 H   0  0  0  0  0  0  0  0  0  0  0  0
   -1.7149   -1.7878    0.4943 H   0  0  0  0  0  0  0  0  0  0  0  0
   -2.4735   -1.8839   -1.1108 H   0  0  0  0  0  0  0  0  0  0  0  0
   -4.4450    0.5825    0.6785 H   0  0  0  0  0  0  0  0  0  0  0  0
  1 18  1  0  0  0  0
  1 19  1  0  0  0  0
  2 19  2  0  0  0  0
  3  4  1  0  0  0  0
  3  5  1  0  0  0  0
  3  6  1  0  0  0  0
  3 11  1  0  0  0  0
  4  5  1  0  0  0  0
  4  8  1  0  0  0  0
  4 10  1  0  0  0  0
  5  9  1  0  0  0  0
  5 20  1  0  0  0  0
  6  7  1  0  0  0  0
  6 14  1  0  0  0  0
  6 15  1  0  0  0  0
  7  8  1  0  0  0  0
  7  9  1  0  0  0  0
  7 21  1  0  0  0  0
  8 22  1  0  0  0  0
  8 23  1  0  0  0  0
  9 24  1  0  0  0  0
  9 25  1  0  0  0  0
 10 12  1  0  0  0  0
 10 16  1  0  0  0  0
 10 17  1  0  0  0  0
 11 13  1  0  0  0  0
 11 18  1  0  0  0  0
 11 26  1  0  0  0  0
 12 13  1  0  0  0  0
 12 27  1  0  0  0  0
 12 28  1  0  0  0  0
 13 29  1  0  0  0  0
 13 30  1  0  0  0  0
 14 31  1  0  0  0  0
 14 32  1  0  0  0  0
 14 33  1  0  0  0  0
 15 34  1  0  0  0  0
 15 35  1  0  0  0  0
 15 36  1  0  0  0  0
 16 37  1  0  0  0  0
 16 38  1  0  0  0  0
 16 39  1  0  0  0  0
 17 40  1  0  0  0  0
 17 41  1  0  0  0  0
 17 42  1  0  0  0  0
 18 43  1  0  0  0  0
 18 44  1  0  0  0  0
 19 45  1  0  0  0  0
M  END
> <PUBCHEM_COMPOUND_CID>
100941

> <PUBCHEM_CONFORMER_RMSD>
0.6

> <PUBCHEM_CONFORMER_DIVERSEORDER>
30
29
36
22
3
35
20
38
11
31
32
4
24
7
19
1
14
27
37
18
28
17
33
10
2
25
34
16
15
8
9
26
23
5
13
21
12
6

> <PUBCHEM_MMFF94_PARTIAL_CHARGES>
14
1 -0.43
10 0.09
11 0.09
18 0.28
19 0.66
2 -0.57
20 0.1
3 -0.19
4 -0.19
45 0.06
5 -0.19
6 0.09
8 0.09
9 0.09

> <PUBCHEM_EFFECTIVE_ROTOR_COUNT>
4.4

> <PUBCHEM_PHARMACOPHORE_FEATURES>
5
1 2 acceptor
3 10 16 17 hydrophobe
3 6 14 15 hydrophobe
7 3 4 5 10 11 12 13 rings
7 3 4 5 6 7 8 9 rings

> <PUBCHEM_HEAVY_ATOM_COUNT>
19

> <PUBCHEM_ATOM_DEF_STEREO_COUNT>
0

> <PUBCHEM_ATOM_UDEF_STEREO_COUNT>
5

> <PUBCHEM_BOND_DEF_STEREO_COUNT>
0

> <PUBCHEM_BOND_UDEF_STEREO_COUNT>
0

> <PUBCHEM_ISOTOPIC_ATOM_COUNT>
0

> <PUBCHEM_COMPONENT_COUNT>
1

> <PUBCHEM_CACTVS_TAUTO_COUNT>
1

> <PUBCHEM_CONFORMER_ID>
00018A4D0000001E

> <PUBCHEM_MMFF94_ENERGY>
81.3163

> <PUBCHEM_FEATURE_SELFOVERLAP>
25.539

> <PUBCHEM_SHAPE_FINGERPRINT>
10382601 240 18193545882018339400
104564 63 18128261090576033709
10863032 1 17896877656045375820
10948715 1 17554609873960384752
11086676 242 18341040856978989658
11680986 33 17479723932405176086
12423570 1 18192969712277127304
12716301 132 17904169595664961353
12824470 246 17025139735966887930
13024252 1 15361387285574724312
13132413 78 17989212516489947345
13134695 92 18340193168348524669
13140716 1 18270668900145052939
13172582 1 18129929135557044306
144361 1 18264500481442122508
14790565 3 18122351434505136080
14817 1 8273836947676942036
15881359 60 17985802879297621758
1601671 61 18200326411344549167
16945 1 18269823255528098238
17357779 13 18268131090401429781
20511035 2 18125722537287103559
20559304 39 18059585719218035627
22182313 1 18270100337191303228
2334 1 17981588661623907174
23419403 2 18194936630899171852
23493267 7 17832982746190685970
23559900 14 17623271790431413866
2748010 2 18126540389444316772
430814 3 17175747888302528293
568465 68 17843943893418854977
6786 2 15802491911706333485
81228 2 17763476014918626967

> <PUBCHEM_SHAPE_MULTIPOLES>
379.27
4.56
2.86
1.56
4.04
0.74
0.04
-3.12
-1.26
-0.22
0.42
-0.37
0.34
0.29

> <PUBCHEM_SHAPE_SELFOVERLAP>
827.944

> <PUBCHEM_SHAPE_VOLUME>
213.2

> <PUBCHEM_COORDINATE_TYPE>
2
5
10

$$$$
