101010
  -OEChem-11232108473D

 26 26  0     1  0  0  0  0  0999 V2000
   -1.0397   -1.2094   -0.9601 S   0  0  0  0  0  0  0  0  0  0  0  0
   -1.9329    0.9751    0.3761 O   0  0  0  0  0  0  0  0  0  0  0  0
    0.4800   -0.1980   -1.0135 C   0  0  1  0  0  0  0  0  0  0  0  0
    0.1520    1.2907   -0.8490 C   0  0  0  0  0  0  0  0  0  0  0  0
    1.4849   -0.6981    0.0222 C   0  0  0  0  0  0  0  0  0  0  0  0
   -0.6651    1.6256    0.3962 C   0  0  0  0  0  0  0  0  0  0  0  0
   -1.8289   -0.4445    0.4920 C   0  0  1  0  0  0  0  0  0  0  0  0
    2.7911    0.0850   -0.0520 C   0  0  0  0  0  0  0  0  0  0  0  0
   -3.2421   -0.9961    0.6270 C   0  0  0  0  0  0  0  0  0  0  0  0
    3.8008   -0.4303    0.9611 C   0  0  0  0  0  0  0  0  0  0  0  0
    0.9117   -0.3449   -2.0108 H   0  0  0  0  0  0  0  0  0  0  0  0
   -0.4407    1.5936   -1.7244 H   0  0  0  0  0  0  0  0  0  0  0  0
    1.0482    1.9157   -0.8855 H   0  0  0  0  0  0  0  0  0  0  0  0
    1.7006   -1.7599   -0.1568 H   0  0  0  0  0  0  0  0  0  0  0  0
    1.0824   -0.6275    1.0395 H   0  0  0  0  0  0  0  0  0  0  0  0
   -0.1298    1.3810    1.3202 H   0  0  0  0  0  0  0  0  0  0  0  0
   -0.8599    2.7032    0.4153 H   0  0  0  0  0  0  0  0  0  0  0  0
   -1.2684   -0.7017    1.3978 H   0  0  0  0  0  0  0  0  0  0  0  0
    2.6355    1.1444    0.1695 H   0  0  0  0  0  0  0  0  0  0  0  0
    3.2189    0.0151   -1.0587 H   0  0  0  0  0  0  0  0  0  0  0  0
   -3.2480   -2.0841    0.7512 H   0  0  0  0  0  0  0  0  0  0  0  0
   -3.7334   -0.5541    1.5017 H   0  0  0  0  0  0  0  0  0  0  0  0
   -3.8628   -0.7307   -0.2369 H   0  0  0  0  0  0  0  0  0  0  0  0
    3.4168   -0.3366    1.9819 H   0  0  0  0  0  0  0  0  0  0  0  0
    4.0378   -1.4833    0.7782 H   0  0  0  0  0  0  0  0  0  0  0  0
    4.7311    0.1424    0.8947 H   0  0  0  0  0  0  0  0  0  0  0  0
  1  3  1  0  0  0  0
  1  7  1  0  0  0  0
  2  6  1  0  0  0  0
  2  7  1  0  0  0  0
  3  4  1  0  0  0  0
  3  5  1  0  0  0  0
  3 11  1  0  0  0  0
  4  6  1  0  0  0  0
  4 12  1  0  0  0  0
  4 13  1  0  0  0  0
  5  8  1  0  0  0  0
  5 14  1  0  0  0  0
  5 15  1  0  0  0  0
  6 16  1  0  0  0  0
  6 17  1  0  0  0  0
  7  9  1  0  0  0  0
  7 18  1  0  0  0  0
  8 10  1  0  0  0  0
  8 19  1  0  0  0  0
  8 20  1  0  0  0  0
  9 21  1  0  0  0  0
  9 22  1  0  0  0  0
  9 23  1  0  0  0  0
 10 24  1  0  0  0  0
 10 25  1  0  0  0  0
 10 26  1  0  0  0  0
M  END
> <PUBCHEM_COMPOUND_CID>
101010

> <PUBCHEM_CONFORMER_RMSD>
0.6

> <PUBCHEM_CONFORMER_DIVERSEORDER>
3
16
22
9
18
13
24
15
25
30
7
12
23
27
26
21
5
28
20
10
4
31
14
6
11
19
29
17
1
8
2

> <PUBCHEM_MMFF94_PARTIAL_CHARGES>
5
1 -0.46
2 -0.56
3 0.23
6 0.28
7 0.51

> <PUBCHEM_EFFECTIVE_ROTOR_COUNT>
3.2

> <PUBCHEM_PHARMACOPHORE_FEATURES>
3
1 10 hydrophobe
1 2 acceptor
6 1 2 3 4 6 7 rings

> <PUBCHEM_HEAVY_ATOM_COUNT>
10

> <PUBCHEM_ATOM_DEF_STEREO_COUNT>
0

> <PUBCHEM_ATOM_UDEF_STEREO_COUNT>
2

> <PUBCHEM_BOND_DEF_STEREO_COUNT>
0

> <PUBCHEM_BOND_UDEF_STEREO_COUNT>
0

> <PUBCHEM_ISOTOPIC_ATOM_COUNT>
0

> <PUBCHEM_COMPONENT_COUNT>
1

> <PUBCHEM_CACTVS_TAUTO_COUNT>
1

> <PUBCHEM_CONFORMER_ID>
00018A9200000003

> <PUBCHEM_MMFF94_ENERGY>
13.7128

> <PUBCHEM_FEATURE_SELFOVERLAP>
15.223

> <PUBCHEM_SHAPE_FINGERPRINT>
10857977 72 18342461438876259512
11031198 65 13038917637260569838
11127187 94 11891343010460232440
12423570 1 12328237408900396781
12932764 1 17703782609834883542
13024252 1 15430316867314633124
13839132 238 15768677307418932707
16945 1 18130791178316060372
18186145 218 10665227064021555590
20201158 50 13262395549091544008
20211469 26 18186514393500137274
20645464 45 17274821329275162982
20653085 51 11743830391668681370
20871998 184 18271807891169690471
23235685 24 8718555982209141539
23402539 116 18187633671226916445
2748010 2 18055935198689923223
29004967 10 16153716431069083508
369184 2 17603863369278480476
528862 383 17972887131002085212
53812654 25 18059017323093134663
75552 356 18408606950296420115

> <PUBCHEM_SHAPE_MULTIPOLES>
203.78
4.95
1.48
1.09
2.85
0.47
-0.13
-1.6
2.28
-0.62
-0.08
0.05
-0.11
-0.18

> <PUBCHEM_SHAPE_SELFOVERLAP>
372.38

> <PUBCHEM_SHAPE_VOLUME>
130.1

> <PUBCHEM_COORDINATE_TYPE>
2
5
10

$$$$
