101087
  -OEChem-11232109003D

 53 52  0     1  0  0  0  0  0999 V2000
   -2.6010   -1.2263   -0.6411 O   0  0  0  0  0  0  0  0  0  0  0  0
   -2.5195   -2.3486    1.3749 O   0  0  0  0  0  0  0  0  0  0  0  0
   -2.4642    0.9038    0.5334 C   0  0  1  0  0  0  0  0  0  0  0  0
   -1.4645    1.3510   -0.5540 C   0  0  0  0  0  0  0  0  0  0  0  0
   -3.2596    2.0625    1.1757 C   0  0  0  0  0  0  0  0  0  0  0  0
   -0.4055    2.3351   -0.0463 C   0  0  0  0  0  0  0  0  0  0  0  0
   -3.3815   -0.1902   -0.0370 C   0  0  0  0  0  0  0  0  0  0  0  0
    2.0655   -1.5444   -0.5816 C   0  0  0  0  0  0  0  0  0  0  0  0
    0.7802   -2.1416   -0.0033 C   0  0  0  0  0  0  0  0  0  0  0  0
    0.5706    2.7854   -1.1366 C   0  0  0  0  0  0  0  0  0  0  0  0
   -0.1223   -2.6915   -1.1130 C   0  0  0  0  0  0  0  0  0  0  0  0
    3.0018   -0.9672    0.4841 C   0  0  0  0  0  0  0  0  0  0  0  0
   -4.1112    2.8758    0.2105 C   0  0  0  0  0  0  0  0  0  0  0  0
   -1.4275   -3.2677   -0.5715 C   0  0  0  0  0  0  0  0  0  0  0  0
    4.2752   -0.3473   -0.0957 C   0  0  0  0  0  0  0  0  0  0  0  0
   -2.2393   -2.2472    0.1875 C   0  0  0  0  0  0  0  0  0  0  0  0
    5.2048    0.1468    1.0136 C   0  0  0  0  0  0  0  0  0  0  0  0
    1.6088    3.7823   -0.6452 C   0  0  0  0  0  0  0  0  0  0  0  0
    6.4894    0.7293    0.4457 C   0  0  0  0  0  0  0  0  0  0  0  0
   -1.8686    0.4429    1.3336 H   0  0  0  0  0  0  0  0  0  0  0  0
   -2.0034    1.7953   -1.3995 H   0  0  0  0  0  0  0  0  0  0  0  0
   -0.9310    0.4824   -0.9567 H   0  0  0  0  0  0  0  0  0  0  0  0
   -2.5769    2.7362    1.7050 H   0  0  0  0  0  0  0  0  0  0  0  0
   -3.9192    1.6445    1.9469 H   0  0  0  0  0  0  0  0  0  0  0  0
    0.1561    1.8720    0.7743 H   0  0  0  0  0  0  0  0  0  0  0  0
   -0.8900    3.2290    0.3609 H   0  0  0  0  0  0  0  0  0  0  0  0
   -4.0568   -0.5887    0.7298 H   0  0  0  0  0  0  0  0  0  0  0  0
   -4.0153    0.2143   -0.8329 H   0  0  0  0  0  0  0  0  0  0  0  0
    2.6005   -2.3163   -1.1486 H   0  0  0  0  0  0  0  0  0  0  0  0
    1.8057   -0.7512   -1.2936 H   0  0  0  0  0  0  0  0  0  0  0  0
    1.0312   -2.9453    0.6993 H   0  0  0  0  0  0  0  0  0  0  0  0
    0.2566   -1.3656    0.5664 H   0  0  0  0  0  0  0  0  0  0  0  0
    1.0871    1.9088   -1.5456 H   0  0  0  0  0  0  0  0  0  0  0  0
    0.0093    3.2383   -1.9626 H   0  0  0  0  0  0  0  0  0  0  0  0
    3.2730   -1.7651    1.1865 H   0  0  0  0  0  0  0  0  0  0  0  0
    2.4625   -0.2062    1.0621 H   0  0  0  0  0  0  0  0  0  0  0  0
   -0.3391   -1.8952   -1.8352 H   0  0  0  0  0  0  0  0  0  0  0  0
    0.4104   -3.4785   -1.6604 H   0  0  0  0  0  0  0  0  0  0  0  0
   -4.8621    2.2569   -0.2881 H   0  0  0  0  0  0  0  0  0  0  0  0
   -3.4992    3.3655   -0.5521 H   0  0  0  0  0  0  0  0  0  0  0  0
   -4.6438    3.6606    0.7583 H   0  0  0  0  0  0  0  0  0  0  0  0
   -2.0445   -3.6631   -1.3861 H   0  0  0  0  0  0  0  0  0  0  0  0
   -1.2156   -4.1055    0.1031 H   0  0  0  0  0  0  0  0  0  0  0  0
    4.7975   -1.0927   -0.7075 H   0  0  0  0  0  0  0  0  0  0  0  0
    4.0095    0.4861   -0.7572 H   0  0  0  0  0  0  0  0  0  0  0  0
    4.6955    0.9109    1.6124 H   0  0  0  0  0  0  0  0  0  0  0  0
    5.4548   -0.6808    1.6874 H   0  0  0  0  0  0  0  0  0  0  0  0
    1.1295    4.6888   -0.2622 H   0  0  0  0  0  0  0  0  0  0  0  0
    2.2155    3.3491    0.1565 H   0  0  0  0  0  0  0  0  0  0  0  0
    2.2778    4.0688   -1.4624 H   0  0  0  0  0  0  0  0  0  0  0  0
    6.2776    1.5798   -0.2102 H   0  0  0  0  0  0  0  0  0  0  0  0
    7.0393   -0.0212   -0.1310 H   0  0  0  0  0  0  0  0  0  0  0  0
    7.1380    1.0779    1.2555 H   0  0  0  0  0  0  0  0  0  0  0  0
  1  7  1  0  0  0  0
  1 16  1  0  0  0  0
  2 16  2  0  0  0  0
  3  4  1  0  0  0  0
  3  5  1  0  0  0  0
  3  7  1  0  0  0  0
  3 20  1  0  0  0  0
  4  6  1  0  0  0  0
  4 21  1  0  0  0  0
  4 22  1  0  0  0  0
  5 13  1  0  0  0  0
  5 23  1  0  0  0  0
  5 24  1  0  0  0  0
  6 10  1  0  0  0  0
  6 25  1  0  0  0  0
  6 26  1  0  0  0  0
  7 27  1  0  0  0  0
  7 28  1  0  0  0  0
  8  9  1  0  0  0  0
  8 12  1  0  0  0  0
  8 29  1  0  0  0  0
  8 30  1  0  0  0  0
  9 11  1  0  0  0  0
  9 31  1  0  0  0  0
  9 32  1  0  0  0  0
 10 18  1  0  0  0  0
 10 33  1  0  0  0  0
 10 34  1  0  0  0  0
 11 14  1  0  0  0  0
 11 37  1  0  0  0  0
 11 38  1  0  0  0  0
 12 15  1  0  0  0  0
 12 35  1  0  0  0  0
 12 36  1  0  0  0  0
 13 39  1  0  0  0  0
 13 40  1  0  0  0  0
 13 41  1  0  0  0  0
 14 16  1  0  0  0  0
 14 42  1  0  0  0  0
 14 43  1  0  0  0  0
 15 17  1  0  0  0  0
 15 44  1  0  0  0  0
 15 45  1  0  0  0  0
 17 19  1  0  0  0  0
 17 46  1  0  0  0  0
 17 47  1  0  0  0  0
 18 48  1  0  0  0  0
 18 49  1  0  0  0  0
 18 50  1  0  0  0  0
 19 51  1  0  0  0  0
 19 52  1  0  0  0  0
 19 53  1  0  0  0  0
M  END
> <PUBCHEM_COMPOUND_CID>
101087

> <PUBCHEM_CONFORMER_RMSD>
1.2

> <PUBCHEM_CONFORMER_DIVERSEORDER>
1
2
158
155
90
68
127
167
119
171
142
36
91
151
139
80
7
51
29
46
86
140
82
27
50
146
131
161
53
40
149
129
99
130
120
42
138
28
48
43
93
128
95
136
125
110
175
4
135
62
44
173
45
116
113
100
102
41
49
15
132
107
66
55
153
164
85
170
147
34
32
11
104
73
58
88
94
106
9
10
111
8
133
169
165
69
5
76
72
166
38
12
122
56
60
14
157
19
103
115
23
174
67
126
18
39
105
145
112
74
152
16
77
108
117
163
79
156
89
47
30
148
97
63
81
168
101
17
24
59
144
37
134
98
109
57
70
141
123
84
162
64
96
172
52
75
13
87
150
3
78
83
124
160
154
54
22
61
26
137
21
159
71
20
121
25
143
35
65
6
31
114
92
33
118

> <PUBCHEM_MMFF94_PARTIAL_CHARGES>
5
1 -0.43
14 0.06
16 0.66
2 -0.57
7 0.28

> <PUBCHEM_EFFECTIVE_ROTOR_COUNT>
14

> <PUBCHEM_PHARMACOPHORE_FEATURES>
5
1 13 hydrophobe
1 18 hydrophobe
1 19 hydrophobe
1 2 acceptor
5 3 4 5 6 10 hydrophobe

> <PUBCHEM_HEAVY_ATOM_COUNT>
19

> <PUBCHEM_ATOM_DEF_STEREO_COUNT>
0

> <PUBCHEM_ATOM_UDEF_STEREO_COUNT>
1

> <PUBCHEM_BOND_DEF_STEREO_COUNT>
0

> <PUBCHEM_BOND_UDEF_STEREO_COUNT>
0

> <PUBCHEM_ISOTOPIC_ATOM_COUNT>
0

> <PUBCHEM_COMPONENT_COUNT>
1

> <PUBCHEM_CACTVS_TAUTO_COUNT>
1

> <PUBCHEM_CONFORMER_ID>
00018ADF00000001

> <PUBCHEM_MMFF94_ENERGY>
5.7266

> <PUBCHEM_FEATURE_SELFOVERLAP>
25.376

> <PUBCHEM_SHAPE_FINGERPRINT>
10493431 412 18269560451006604777
11135609 187 18266725897546677845
11578080 2 13182201517785426025
13140716 1 18121508118092823731
14117953 113 18192714432401108964
14142880 1 18411975837050239055
17834072 32 18270400482047854434
20765182 5 18411418436495471820
21041028 32 18120382209427170123
3524813 1 18131340938747098154
44154327 71 18120666733656029023
5282940 2 17828492693154086964
57091435 65 17760652868543145848
7064713 232 18341612586309975856
9925002 15 17268057374244008014

> <PUBCHEM_SHAPE_MULTIPOLES>
379.27
9.72
4.9
1.08
15.76
0.86
0.06
3.76
3.56
-2.97
-1.15
-0.09
0.04
-0.41

> <PUBCHEM_SHAPE_SELFOVERLAP>
695.401

> <PUBCHEM_SHAPE_VOLUME>
240.5

> <PUBCHEM_COORDINATE_TYPE>
2
5
10

$$$$
