101145
  -OEChem-11232108473D

 27 26  0     1  0  0  0  0  0999 V2000
    0.6944    0.2266   -0.2210 O   0  0  0  0  0  0  0  0  0  0  0  0
    4.2436   -0.3003   -0.2170 O   0  0  0  0  0  0  0  0  0  0  0  0
    1.9679   -1.6162    0.3277 O   0  0  0  0  0  0  0  0  0  0  0  0
   -3.0079   -0.3097    0.1280 C   0  0  0  0  0  0  0  0  0  0  0  0
   -1.6923    0.4098   -0.1613 C   0  0  0  0  0  0  0  0  0  0  0  0
   -4.2090    0.5919   -0.1562 C   0  0  0  0  0  0  0  0  0  0  0  0
   -0.4922   -0.4950    0.0791 C   0  0  0  0  0  0  0  0  0  0  0  0
   -5.5215   -0.1320    0.0984 C   0  0  0  0  0  0  0  0  0  0  0  0
    3.0451    0.4423   -0.3787 C   0  0  1  0  0  0  0  0  0  0  0  0
    1.8698   -0.4568   -0.0530 C   0  0  0  0  0  0  0  0  0  0  0  0
    3.1022    1.6395    0.5539 C   0  0  0  0  0  0  0  0  0  0  0  0
   -3.0288   -0.6327    1.1760 H   0  0  0  0  0  0  0  0  0  0  0  0
   -3.0749   -1.2134   -0.4899 H   0  0  0  0  0  0  0  0  0  0  0  0
   -1.6040    1.3068    0.4643 H   0  0  0  0  0  0  0  0  0  0  0  0
   -1.6743    0.7653   -1.1992 H   0  0  0  0  0  0  0  0  0  0  0  0
   -4.1612    1.4859    0.4764 H   0  0  0  0  0  0  0  0  0  0  0  0
   -4.1830    0.9301   -1.1987 H   0  0  0  0  0  0  0  0  0  0  0  0
   -0.5536   -1.3793   -0.5662 H   0  0  0  0  0  0  0  0  0  0  0  0
   -0.4691   -0.8165    1.1270 H   0  0  0  0  0  0  0  0  0  0  0  0
   -5.6149   -1.0130   -0.5445 H   0  0  0  0  0  0  0  0  0  0  0  0
   -5.5939   -0.4578    1.1410 H   0  0  0  0  0  0  0  0  0  0  0  0
   -6.3668    0.5314   -0.1098 H   0  0  0  0  0  0  0  0  0  0  0  0
    2.9783    0.7601   -1.4242 H   0  0  0  0  0  0  0  0  0  0  0  0
    4.0012    2.2347    0.3610 H   0  0  0  0  0  0  0  0  0  0  0  0
    2.2259    2.2849    0.4382 H   0  0  0  0  0  0  0  0  0  0  0  0
    3.1517    1.3182    1.6007 H   0  0  0  0  0  0  0  0  0  0  0  0
    4.2436   -1.0054   -0.8869 H   0  0  0  0  0  0  0  0  0  0  0  0
  1  7  1  0  0  0  0
  1 10  1  0  0  0  0
  2  9  1  0  0  0  0
  2 27  1  0  0  0  0
  3 10  2  0  0  0  0
  4  5  1  0  0  0  0
  4  6  1  0  0  0  0
  4 12  1  0  0  0  0
  4 13  1  0  0  0  0
  5  7  1  0  0  0  0
  5 14  1  0  0  0  0
  5 15  1  0  0  0  0
  6  8  1  0  0  0  0
  6 16  1  0  0  0  0
  6 17  1  0  0  0  0
  7 18  1  0  0  0  0
  7 19  1  0  0  0  0
  8 20  1  0  0  0  0
  8 21  1  0  0  0  0
  8 22  1  0  0  0  0
  9 10  1  0  0  0  0
  9 11  1  0  0  0  0
  9 23  1  0  0  0  0
 11 24  1  0  0  0  0
 11 25  1  0  0  0  0
 11 26  1  0  0  0  0
M  END
> <PUBCHEM_COMPOUND_CID>
101145

> <PUBCHEM_CONFORMER_RMSD>
0.8

> <PUBCHEM_CONFORMER_DIVERSEORDER>
1
516
6
618
227
178
225
329
33
24
487
207
555
234
430
183
2
97
190
220
277
486
8
417
152
435
31
98
5
465
335
25
181
385
505
475
446
35
249
365
279
461
195
22
176
339
17
114
28
54
350
77
431
144
357
519
602
94
589
168
310
60
520
237
619
113
30
242
563
64
500
420
11
433
93
29
309
145
96
199
583
621
296
280
19
590
591
545
112
9
304
27
294
184
110
172
302
313
74
325
407
584
132
81
4
300
106

> <PUBCHEM_MMFF94_PARTIAL_CHARGES>
7
1 -0.43
10 0.66
2 -0.68
27 0.4
3 -0.57
7 0.28
9 0.34

> <PUBCHEM_EFFECTIVE_ROTOR_COUNT>
6

> <PUBCHEM_PHARMACOPHORE_FEATURES>
4
1 2 acceptor
1 2 donor
1 3 acceptor
1 8 hydrophobe

> <PUBCHEM_HEAVY_ATOM_COUNT>
11

> <PUBCHEM_ATOM_DEF_STEREO_COUNT>
0

> <PUBCHEM_ATOM_UDEF_STEREO_COUNT>
1

> <PUBCHEM_BOND_DEF_STEREO_COUNT>
0

> <PUBCHEM_BOND_UDEF_STEREO_COUNT>
0

> <PUBCHEM_ISOTOPIC_ATOM_COUNT>
0

> <PUBCHEM_COMPONENT_COUNT>
1

> <PUBCHEM_CACTVS_TAUTO_COUNT>
1

> <PUBCHEM_CONFORMER_ID>
00018B1900000001

> <PUBCHEM_MMFF94_ENERGY>
1.1093

> <PUBCHEM_FEATURE_SELFOVERLAP>
20.305

> <PUBCHEM_SHAPE_FINGERPRINT>
11062470 55 18334014990947212727
13081056 2 18411418418940952397
14123238 8 17458064876498463735
14325111 11 18408040689329401887
17834072 33 18130503128393266007
17834076 25 17821731636866152831
190213 19 17203894067223194837
20279233 1 17603876589335614827
20645477 70 18336827477061560055
20719005 15 18409449189446810037
22485316 2 18335136493113707191
23402539 116 17561359561485125677
23402655 69 18343864411423745701
4047638 21 18202002153112370728
42788 4 18413108360271158853
449060 50 18335139817112335405
449060 62 18411703209521567788
522135 26 18130788940654014230

> <PUBCHEM_SHAPE_MULTIPOLES>
208.77
10.29
1.17
0.66
9.29
0.08
-0.01
1.22
-0.02
-1.11
-0.18
-0.08
0.05
0.22

> <PUBCHEM_SHAPE_SELFOVERLAP>
382.691

> <PUBCHEM_SHAPE_VOLUME>
133

> <PUBCHEM_COORDINATE_TYPE>
2
5
10

$$$$
