101150
  -OEChem-11232109073D

 27 27  0     1  0  0  0  0  0999 V2000
   -3.2802    0.1200    0.2704 O   0  0  0  0  0  0  0  0  0  0  0  0
   -0.1741   -1.2681   -0.3064 C   0  0  1  0  0  0  0  0  0  0  0  0
   -0.8781    0.0297    0.1333 C   0  0  1  0  0  0  0  0  0  0  0  0
   -0.1149    1.2848   -0.3544 C   0  0  2  0  0  0  0  0  0  0  0  0
    1.2742   -1.2975    0.2166 C   0  0  0  0  0  0  0  0  0  0  0  0
    2.0197   -0.0078    0.0061 C   0  0  0  0  0  0  0  0  0  0  0  0
    1.3839    1.1433   -0.2662 C   0  0  0  0  0  0  0  0  0  0  0  0
   -0.9121   -2.5228    0.1736 C   0  0  0  0  0  0  0  0  0  0  0  0
   -0.5603    2.5233    0.4342 C   0  0  0  0  0  0  0  0  0  0  0  0
   -2.2723    0.0756   -0.4271 C   0  0  0  0  0  0  0  0  0  0  0  0
    3.5141   -0.0804    0.1198 C   0  0  0  0  0  0  0  0  0  0  0  0
   -0.1468   -1.3020   -1.4051 H   0  0  0  0  0  0  0  0  0  0  0  0
   -0.9539    0.0415    1.2295 H   0  0  0  0  0  0  0  0  0  0  0  0
   -0.3520    1.4687   -1.4116 H   0  0  0  0  0  0  0  0  0  0  0  0
    1.8063   -2.1122   -0.2912 H   0  0  0  0  0  0  0  0  0  0  0  0
    1.2860   -1.5291    1.2895 H   0  0  0  0  0  0  0  0  0  0  0  0
    1.9701    2.0430   -0.4413 H   0  0  0  0  0  0  0  0  0  0  0  0
   -1.9107   -2.5921   -0.2692 H   0  0  0  0  0  0  0  0  0  0  0  0
   -0.3644   -3.4270   -0.1133 H   0  0  0  0  0  0  0  0  0  0  0  0
   -1.0229   -2.5259    1.2633 H   0  0  0  0  0  0  0  0  0  0  0  0
   -0.0526    3.4242    0.0711 H   0  0  0  0  0  0  0  0  0  0  0  0
   -1.6372    2.6919    0.3309 H   0  0  0  0  0  0  0  0  0  0  0  0
   -0.3347    2.4199    1.5017 H   0  0  0  0  0  0  0  0  0  0  0  0
   -2.3541    0.0627   -1.5281 H   0  0  0  0  0  0  0  0  0  0  0  0
    3.9880    0.8964   -0.0232 H   0  0  0  0  0  0  0  0  0  0  0  0
    3.9201   -0.7617   -0.6348 H   0  0  0  0  0  0  0  0  0  0  0  0
    3.8008   -0.4476    1.1106 H   0  0  0  0  0  0  0  0  0  0  0  0
  1 10  2  0  0  0  0
  2  3  1  0  0  0  0
  2  5  1  0  0  0  0
  2  8  1  0  0  0  0
  2 12  1  0  0  0  0
  3  4  1  0  0  0  0
  3 10  1  0  0  0  0
  3 13  1  0  0  0  0
  4  7  1  0  0  0  0
  4  9  1  0  0  0  0
  4 14  1  0  0  0  0
  5  6  1  0  0  0  0
  5 15  1  0  0  0  0
  5 16  1  0  0  0  0
  6  7  2  0  0  0  0
  6 11  1  0  0  0  0
  7 17  1  0  0  0  0
  8 18  1  0  0  0  0
  8 19  1  0  0  0  0
  8 20  1  0  0  0  0
  9 21  1  0  0  0  0
  9 22  1  0  0  0  0
  9 23  1  0  0  0  0
 10 24  1  0  0  0  0
 11 25  1  0  0  0  0
 11 26  1  0  0  0  0
 11 27  1  0  0  0  0
M  END
> <PUBCHEM_COMPOUND_CID>
101150

> <PUBCHEM_CONFORMER_RMSD>
0.4

> <PUBCHEM_CONFORMER_DIVERSEORDER>
4
9
3
14
6
8
10
11
12
5
7
15
1
13
2

> <PUBCHEM_MMFF94_PARTIAL_CHARGES>
10
1 -0.57
10 0.45
11 0.14
17 0.15
24 0.06
3 0.06
4 0.14
5 0.14
6 -0.28
7 -0.29

> <PUBCHEM_EFFECTIVE_ROTOR_COUNT>
1.8

> <PUBCHEM_PHARMACOPHORE_FEATURES>
2
1 1 acceptor
6 2 3 4 5 6 7 rings

> <PUBCHEM_HEAVY_ATOM_COUNT>
11

> <PUBCHEM_ATOM_DEF_STEREO_COUNT>
0

> <PUBCHEM_ATOM_UDEF_STEREO_COUNT>
3

> <PUBCHEM_BOND_DEF_STEREO_COUNT>
0

> <PUBCHEM_BOND_UDEF_STEREO_COUNT>
0

> <PUBCHEM_ISOTOPIC_ATOM_COUNT>
0

> <PUBCHEM_COMPONENT_COUNT>
1

> <PUBCHEM_CACTVS_TAUTO_COUNT>
2

> <PUBCHEM_CONFORMER_ID>
00018B1E00000004

> <PUBCHEM_MMFF94_ENERGY>
13.0734

> <PUBCHEM_FEATURE_SELFOVERLAP>
10.148

> <PUBCHEM_SHAPE_FINGERPRINT>
10219947 1 18410577266838800683
12382932 28 18339919432644087506
13380535 220 18046064023481524863
14993402 34 18411133658234846847
15310529 11 16515673429897669924
16945 1 18410291406600267060
18185500 45 18337388361119231614
193761 8 17762055840705269637
20510252 161 18272084934162495784
20588541 1 18413392033733249814
20871998 184 18200877395566901222
21040471 1 18409729607466011502
21501502 16 17977105982924309343
23235685 24 18411131433410041390
2334 1 17977947109477690038
23402539 116 18271230660645188846
23402655 69 18194662793281753573
23552423 10 17903640678831913678
23559900 14 18341617053766754996
241688 4 17832428592235075050
2748010 2 18123468547134588196
5084963 1 18058729074757799738
528886 8 18411412904134021803
53812653 8 18336560343069964420
66348 1 17977100163175051454

> <PUBCHEM_SHAPE_MULTIPOLES>
220.51
3.85
2.38
0.68
0.9
0.03
0.01
0.1
-0.16
-0.68
-0.28
-0.03
-0.05
-0.1

> <PUBCHEM_SHAPE_SELFOVERLAP>
435.354

> <PUBCHEM_SHAPE_VOLUME>
131.6

> <PUBCHEM_COORDINATE_TYPE>
2
5
10

$$$$
