101297586
  -OEChem-11232109123D

 40 41  0     1  0  0  0  0  0999 V2000
    1.0252    2.7570   -0.1848 O   0  0  0  0  0  0  0  0  0  0  0  0
   -0.0902    1.8642   -0.3726 C   0  0  1  0  0  0  0  0  0  0  0  0
    1.1497    1.4663    0.4258 C   0  0  1  0  0  0  0  0  0  0  0  0
    2.3010    0.6556   -0.0871 C   0  0  0  0  0  0  0  0  0  0  0  0
   -1.3222    2.2776    0.4022 C   0  0  0  0  0  0  0  0  0  0  0  0
    2.1708   -0.8758    0.1502 C   0  0  0  0  0  0  0  0  0  0  0  0
   -0.2876    1.5299   -1.8205 C   0  0  0  0  0  0  0  0  0  0  0  0
   -1.9161    1.1360    1.2357 C   0  0  0  0  0  0  0  0  0  0  0  0
    3.5319   -1.5162   -0.2381 C   0  0  0  0  0  0  0  0  0  0  0  0
    1.9645   -1.2078    1.6397 C   0  0  0  0  0  0  0  0  0  0  0  0
    1.1422   -1.4685   -0.8038 C   0  0  0  0  0  0  0  0  0  0  0  0
   -2.7056    0.1487    0.4242 C   0  0  0  0  0  0  0  0  0  0  0  0
   -0.1324   -1.8710   -0.6761 C   0  0  0  0  0  0  0  0  0  0  0  0
   -2.3830   -1.1203    0.1036 C   0  0  0  0  0  0  0  0  0  0  0  0
   -1.0867   -1.8135    0.4805 C   0  0  0  0  0  0  0  0  0  0  0  0
   -3.3616   -1.9623   -0.6788 C   0  0  0  0  0  0  0  0  0  0  0  0
    1.0973    1.4605    1.5073 H   0  0  0  0  0  0  0  0  0  0  0  0
    2.4769    0.8573   -1.1511 H   0  0  0  0  0  0  0  0  0  0  0  0
    3.1999    1.0193    0.4295 H   0  0  0  0  0  0  0  0  0  0  0  0
   -2.0776    2.6917   -0.2773 H   0  0  0  0  0  0  0  0  0  0  0  0
   -1.0571    3.0924    1.0891 H   0  0  0  0  0  0  0  0  0  0  0  0
    0.6471    1.2784   -2.3287 H   0  0  0  0  0  0  0  0  0  0  0  0
   -0.7210    2.3871   -2.3472 H   0  0  0  0  0  0  0  0  0  0  0  0
   -0.9727    0.6871   -1.9404 H   0  0  0  0  0  0  0  0  0  0  0  0
   -2.6116    1.5725    1.9646 H   0  0  0  0  0  0  0  0  0  0  0  0
   -1.1404    0.6499    1.8323 H   0  0  0  0  0  0  0  0  0  0  0  0
    3.5058   -2.6069   -0.1251 H   0  0  0  0  0  0  0  0  0  0  0  0
    3.8022   -1.2957   -1.2781 H   0  0  0  0  0  0  0  0  0  0  0  0
    4.3448   -1.1376    0.3930 H   0  0  0  0  0  0  0  0  0  0  0  0
    2.8456   -0.9238    2.2279 H   0  0  0  0  0  0  0  0  0  0  0  0
    1.1216   -0.6787    2.0866 H   0  0  0  0  0  0  0  0  0  0  0  0
    1.8048   -2.2820    1.7889 H   0  0  0  0  0  0  0  0  0  0  0  0
    1.5319   -1.5943   -1.8179 H   0  0  0  0  0  0  0  0  0  0  0  0
   -3.6669    0.5317    0.0826 H   0  0  0  0  0  0  0  0  0  0  0  0
   -0.5647   -2.2984   -1.5826 H   0  0  0  0  0  0  0  0  0  0  0  0
   -1.3124   -2.8395    0.7974 H   0  0  0  0  0  0  0  0  0  0  0  0
   -0.6469   -1.3396    1.3529 H   0  0  0  0  0  0  0  0  0  0  0  0
   -2.9419   -2.2462   -1.6486 H   0  0  0  0  0  0  0  0  0  0  0  0
   -4.3031   -1.4365   -0.8707 H   0  0  0  0  0  0  0  0  0  0  0  0
   -3.6044   -2.8742   -0.1234 H   0  0  0  0  0  0  0  0  0  0  0  0
  1  2  1  0  0  0  0
  1  3  1  0  0  0  0
  2  3  1  0  0  0  0
  2  5  1  0  0  0  0
  2  7  1  0  0  0  0
  3  4  1  0  0  0  0
  3 17  1  0  0  0  0
  4  6  1  0  0  0  0
  4 18  1  0  0  0  0
  4 19  1  0  0  0  0
  5  8  1  0  0  0  0
  5 20  1  0  0  0  0
  5 21  1  0  0  0  0
  6  9  1  0  0  0  0
  6 10  1  0  0  0  0
  6 11  1  0  0  0  0
  7 22  1  0  0  0  0
  7 23  1  0  0  0  0
  7 24  1  0  0  0  0
  8 12  1  0  0  0  0
  8 25  1  0  0  0  0
  8 26  1  0  0  0  0
  9 27  1  0  0  0  0
  9 28  1  0  0  0  0
  9 29  1  0  0  0  0
 10 30  1  0  0  0  0
 10 31  1  0  0  0  0
 10 32  1  0  0  0  0
 11 13  2  0  0  0  0
 11 33  1  0  0  0  0
 12 14  2  0  0  0  0
 12 34  1  0  0  0  0
 13 15  1  0  0  0  0
 13 35  1  0  0  0  0
 14 15  1  0  0  0  0
 14 16  1  0  0  0  0
 15 36  1  0  0  0  0
 15 37  1  0  0  0  0
 16 38  1  0  0  0  0
 16 39  1  0  0  0  0
 16 40  1  0  0  0  0
M  END
> <PUBCHEM_COMPOUND_CID>
101297586

> <PUBCHEM_CONFORMER_RMSD>
0.6

> <PUBCHEM_CONFORMER_DIVERSEORDER>
1
2
5
4
3

> <PUBCHEM_MMFF94_PARTIAL_CHARGES>
18
1 -0.3
11 -0.29
12 -0.29
13 -0.29
14 -0.28
15 0.28
16 0.14
17 0.1
2 -0.04
3 -0.05
33 0.15
34 0.15
35 0.15
4 0.09
5 0.09
6 0.14
7 0.09
8 0.14

> <PUBCHEM_EFFECTIVE_ROTOR_COUNT>
1.2

> <PUBCHEM_PHARMACOPHORE_FEATURES>
2
1 1 acceptor
3 6 9 10 hydrophobe

> <PUBCHEM_HEAVY_ATOM_COUNT>
16

> <PUBCHEM_ATOM_DEF_STEREO_COUNT>
2

> <PUBCHEM_ATOM_UDEF_STEREO_COUNT>
0

> <PUBCHEM_BOND_DEF_STEREO_COUNT>
2

> <PUBCHEM_BOND_UDEF_STEREO_COUNT>
0

> <PUBCHEM_ISOTOPIC_ATOM_COUNT>
0

> <PUBCHEM_COMPONENT_COUNT>
1

> <PUBCHEM_CACTVS_TAUTO_COUNT>
1

> <PUBCHEM_CONFORMER_ID>
0609ADB200000001

> <PUBCHEM_MMFF94_ENERGY>
36.287

> <PUBCHEM_FEATURE_SELFOVERLAP>
10.148

> <PUBCHEM_SHAPE_FINGERPRINT>
104564 63 18340498823473978284
10967382 1 18052259792968355290
10989021 7 18411980308200936331
11086676 242 18262811665588052394
11132069 177 18340768118213555386
11321824 6 17684349681826056051
12011746 2 18125444116005448549
12382932 28 18052544261558591400
14181834 199 18120082034056968143
1420 336 18410858758895472275
14251711 518 18123467438827687242
14251745 187 18057042406820342214
14817 1 17983033162341612325
15775835 57 17826524261948874514
15852999 172 16381972540924290348
15881359 60 17981285097698588095
16945 1 18195538218551987160
17357779 13 18340469111038022087
19930374 2 17321261204155020844
20905425 154 18052544558201485191
21130352 189 18409727404316970454
21160774 45 18120653526679196508
22802520 49 17626679197627942398
2334 1 18411423937709774331
23388829 49 18199466739359670207
23402539 116 18342448219073080223
23419403 2 17405930471462636641
2748010 2 18339918225790107500
2897 32 17689718983688524221
3286 77 17060327518259693914
484985 159 16453415654255346986
66348 1 18267873958840377297

> <PUBCHEM_SHAPE_MULTIPOLES>
323.4
4.48
3.08
1.25
0.22
0.98
-0.04
-2.55
0.33
-0.6
-0.37
0.01
0.1
-0.48

> <PUBCHEM_SHAPE_SELFOVERLAP>
644.478

> <PUBCHEM_SHAPE_VOLUME>
192.1

> <PUBCHEM_COORDINATE_TYPE>
2
5
10

$$$$
