101362
  -OEChem-11232109203D

 24 24  0     0  0  0  0  0  0999 V2000
    0.5262   -1.9398    0.0043 O   0  0  0  0  0  0  0  0  0  0  0  0
    1.4748    0.2705   -0.1584 C   0  0  0  0  0  0  0  0  0  0  0  0
    2.8402   -0.4190   -0.2048 C   0  0  0  0  0  0  0  0  0  0  0  0
    0.3313   -0.7276   -0.0495 C   0  0  0  0  0  0  0  0  0  0  0  0
   -1.0690   -0.2120   -0.0086 C   0  0  0  0  0  0  0  0  0  0  0  0
   -1.2725    1.1474   -0.0712 C   0  0  0  0  0  0  0  0  0  0  0  0
   -2.1015   -1.1163    0.0894 C   0  0  0  0  0  0  0  0  0  0  0  0
    3.9523    0.5809   -0.3180 C   0  0  0  0  0  0  0  0  0  0  0  0
   -2.5809    1.6293   -0.0333 C   0  0  0  0  0  0  0  0  0  0  0  0
   -3.4100   -0.6342    0.1271 C   0  0  0  0  0  0  0  0  0  0  0  0
   -3.6495    0.7386    0.0658 C   0  0  0  0  0  0  0  0  0  0  0  0
    4.9588    0.6821    0.5571 C   0  0  0  0  0  0  0  0  0  0  0  0
    1.4417    0.9365    0.7118 H   0  0  0  0  0  0  0  0  0  0  0  0
    1.3418    0.8565   -1.0755 H   0  0  0  0  0  0  0  0  0  0  0  0
    2.9697   -1.0475    0.6853 H   0  0  0  0  0  0  0  0  0  0  0  0
    2.8864   -1.0908   -1.0708 H   0  0  0  0  0  0  0  0  0  0  0  0
   -0.4739    1.8759   -0.1476 H   0  0  0  0  0  0  0  0  0  0  0  0
   -1.9371   -2.1880    0.1384 H   0  0  0  0  0  0  0  0  0  0  0  0
    3.9399    1.2483   -1.1759 H   0  0  0  0  0  0  0  0  0  0  0  0
   -2.7683    2.6982   -0.0807 H   0  0  0  0  0  0  0  0  0  0  0  0
   -4.2425   -1.3276    0.2043 H   0  0  0  0  0  0  0  0  0  0  0  0
   -4.6684    1.1139    0.0953 H   0  0  0  0  0  0  0  0  0  0  0  0
    5.7385    1.4222    0.4140 H   0  0  0  0  0  0  0  0  0  0  0  0
    5.0235    0.0355    1.4250 H   0  0  0  0  0  0  0  0  0  0  0  0
  1  4  2  0  0  0  0
  2  3  1  0  0  0  0
  2  4  1  0  0  0  0
  2 13  1  0  0  0  0
  2 14  1  0  0  0  0
  3  8  1  0  0  0  0
  3 15  1  0  0  0  0
  3 16  1  0  0  0  0
  4  5  1  0  0  0  0
  5  6  2  0  0  0  0
  5  7  1  0  0  0  0
  6  9  1  0  0  0  0
  6 17  1  0  0  0  0
  7 10  2  0  0  0  0
  7 18  1  0  0  0  0
  8 12  2  0  0  0  0
  8 19  1  0  0  0  0
  9 11  2  0  0  0  0
  9 20  1  0  0  0  0
 10 11  1  0  0  0  0
 10 21  1  0  0  0  0
 11 22  1  0  0  0  0
 12 23  1  0  0  0  0
 12 24  1  0  0  0  0
M  END
> <PUBCHEM_COMPOUND_CID>
101362

> <PUBCHEM_CONFORMER_RMSD>
0.6

> <PUBCHEM_CONFORMER_DIVERSEORDER>
1
28
25
8
13
23
32
3
22
20
14
29
6
33
30
10
16
5
34
17
4
12
24
2
18
27
9
31
19
26
11
21
7
15

> <PUBCHEM_MMFF94_PARTIAL_CHARGES>
20
1 -0.57
10 -0.15
11 -0.15
12 -0.3
17 0.15
18 0.15
19 0.15
2 0.06
20 0.15
21 0.15
22 0.15
23 0.15
24 0.15
3 0.14
4 0.42
5 0.09
6 -0.15
7 -0.15
8 -0.29
9 -0.15

> <PUBCHEM_EFFECTIVE_ROTOR_COUNT>
4

> <PUBCHEM_PHARMACOPHORE_FEATURES>
3
1 1 acceptor
1 12 hydrophobe
6 5 6 7 9 10 11 rings

> <PUBCHEM_HEAVY_ATOM_COUNT>
12

> <PUBCHEM_ATOM_DEF_STEREO_COUNT>
0

> <PUBCHEM_ATOM_UDEF_STEREO_COUNT>
0

> <PUBCHEM_BOND_DEF_STEREO_COUNT>
0

> <PUBCHEM_BOND_UDEF_STEREO_COUNT>
0

> <PUBCHEM_ISOTOPIC_ATOM_COUNT>
0

> <PUBCHEM_COMPONENT_COUNT>
1

> <PUBCHEM_CACTVS_TAUTO_COUNT>
2

> <PUBCHEM_CONFORMER_ID>
00018BF200000001

> <PUBCHEM_MMFF94_ENERGY>
25.1131

> <PUBCHEM_FEATURE_SELFOVERLAP>
15.223

> <PUBCHEM_SHAPE_FINGERPRINT>
10608611 8 18338798892624568372
11132069 177 18334016077189109260
11543360 7 15626212546441871276
12346645 44 18410011005175625770
124424 183 13406790038716773783
12932764 1 17418081114147017438
13214271 11 18410012152348527879
13380535 76 18335423447899228739
14325111 11 18410294688013355438
14897335 6 18337388249276132087
15219456 202 18272378520540688694
15536298 74 18340488859682919798
15775835 57 18410294692202769248
17802600 8 18409443721774594420
17846911 113 18410572890156512192
18186145 218 18059588957596853430
20645477 56 18272369815200921204
20645477 70 16988291885016980222
23402539 116 18339916103812467526
23402655 69 18270669854492676885
23559900 14 18199186179522704254
42 15 18040148497038574730
5104073 3 18337395928793748179
6333449 129 18412825785429321149
7364860 26 18196373606834648206

> <PUBCHEM_SHAPE_MULTIPOLES>
241.09
8.25
1.5
0.65
8.15
0.12
-0.01
-2.4
-0.78
-0.76
-0.01
0.17
-0.03
0.16

> <PUBCHEM_SHAPE_SELFOVERLAP>
491.44

> <PUBCHEM_SHAPE_VOLUME>
139.3

> <PUBCHEM_COORDINATE_TYPE>
2
5
10

$$$$
