101364
  -OEChem-11232109453D

 40 39  0     0  0  0  0  0  0999 V2000
    3.1564   -0.8163   -0.3028 O   0  0  0  0  0  0  0  0  0  0  0  0
    2.1147    1.2988   -0.3098 O   0  0  0  0  0  0  0  0  0  0  0  0
   -1.7731   -0.5577   -0.2281 C   0  0  0  0  0  0  0  0  0  0  0  0
   -0.4748    0.1175    0.2194 C   0  0  0  0  0  0  0  0  0  0  0  0
   -3.0336    0.2048    0.1919 C   0  0  0  0  0  0  0  0  0  0  0  0
    0.7505   -0.6732   -0.2506 C   0  0  0  0  0  0  0  0  0  0  0  0
   -4.3669   -0.4651   -0.1543 C   0  0  0  0  0  0  0  0  0  0  0  0
    2.0695   -0.0373    0.2084 C   0  0  0  0  0  0  0  0  0  0  0  0
   -5.5873    0.3677    0.2382 C   0  0  0  0  0  0  0  0  0  0  0  0
   -6.8828   -0.3447   -0.1193 C   0  0  0  0  0  0  0  0  0  0  0  0
    3.4077   -1.9854    0.4655 C   0  0  0  0  0  0  0  0  0  0  0  0
    3.0322    2.1217    0.3985 C   0  0  0  0  0  0  0  0  0  0  0  0
    4.5675   -2.7395   -0.1493 C   0  0  0  0  0  0  0  0  0  0  0  0
    3.0201    3.5087   -0.2077 C   0  0  0  0  0  0  0  0  0  0  0  0
   -1.7721   -0.6666   -1.3196 H   0  0  0  0  0  0  0  0  0  0  0  0
   -1.8153   -1.5707    0.1907 H   0  0  0  0  0  0  0  0  0  0  0  0
   -0.4624    0.1992    1.3128 H   0  0  0  0  0  0  0  0  0  0  0  0
   -0.4441    1.1368   -0.1828 H   0  0  0  0  0  0  0  0  0  0  0  0
   -3.0001    0.3688    1.2766 H   0  0  0  0  0  0  0  0  0  0  0  0
   -3.0083    1.1996   -0.2709 H   0  0  0  0  0  0  0  0  0  0  0  0
    0.7425   -0.7274   -1.3472 H   0  0  0  0  0  0  0  0  0  0  0  0
    0.6699   -1.7048    0.1067 H   0  0  0  0  0  0  0  0  0  0  0  0
   -4.3954   -0.6614   -1.2333 H   0  0  0  0  0  0  0  0  0  0  0  0
   -4.4144   -1.4407    0.3452 H   0  0  0  0  0  0  0  0  0  0  0  0
    2.1012   -0.0047    1.3058 H   0  0  0  0  0  0  0  0  0  0  0  0
   -5.5695    0.5665    1.3159 H   0  0  0  0  0  0  0  0  0  0  0  0
   -5.5548    1.3372   -0.2719 H   0  0  0  0  0  0  0  0  0  0  0  0
   -7.7434    0.2671    0.1692 H   0  0  0  0  0  0  0  0  0  0  0  0
   -6.9591   -1.3049    0.4007 H   0  0  0  0  0  0  0  0  0  0  0  0
   -6.9441   -0.5307   -1.1963 H   0  0  0  0  0  0  0  0  0  0  0  0
    2.5320   -2.6397    0.4841 H   0  0  0  0  0  0  0  0  0  0  0  0
    3.6601   -1.7022    1.4934 H   0  0  0  0  0  0  0  0  0  0  0  0
    4.0394    1.6960    0.3325 H   0  0  0  0  0  0  0  0  0  0  0  0
    2.7389    2.1813    1.4525 H   0  0  0  0  0  0  0  0  0  0  0  0
    4.3386   -3.0234   -1.1818 H   0  0  0  0  0  0  0  0  0  0  0  0
    5.4625   -2.1096   -0.1834 H   0  0  0  0  0  0  0  0  0  0  0  0
    4.7941   -3.6434    0.4231 H   0  0  0  0  0  0  0  0  0  0  0  0
    3.2987    3.4692   -1.2660 H   0  0  0  0  0  0  0  0  0  0  0  0
    2.0155    3.9418   -0.1592 H   0  0  0  0  0  0  0  0  0  0  0  0
    3.7157    4.1705    0.3159 H   0  0  0  0  0  0  0  0  0  0  0  0
  1  8  1  0  0  0  0
  1 11  1  0  0  0  0
  2  8  1  0  0  0  0
  2 12  1  0  0  0  0
  3  4  1  0  0  0  0
  3  5  1  0  0  0  0
  3 15  1  0  0  0  0
  3 16  1  0  0  0  0
  4  6  1  0  0  0  0
  4 17  1  0  0  0  0
  4 18  1  0  0  0  0
  5  7  1  0  0  0  0
  5 19  1  0  0  0  0
  5 20  1  0  0  0  0
  6  8  1  0  0  0  0
  6 21  1  0  0  0  0
  6 22  1  0  0  0  0
  7  9  1  0  0  0  0
  7 23  1  0  0  0  0
  7 24  1  0  0  0  0
  8 25  1  0  0  0  0
  9 10  1  0  0  0  0
  9 26  1  0  0  0  0
  9 27  1  0  0  0  0
 10 28  1  0  0  0  0
 10 29  1  0  0  0  0
 10 30  1  0  0  0  0
 11 13  1  0  0  0  0
 11 31  1  0  0  0  0
 11 32  1  0  0  0  0
 12 14  1  0  0  0  0
 12 33  1  0  0  0  0
 12 34  1  0  0  0  0
 13 35  1  0  0  0  0
 13 36  1  0  0  0  0
 13 37  1  0  0  0  0
 14 38  1  0  0  0  0
 14 39  1  0  0  0  0
 14 40  1  0  0  0  0
M  END
> <PUBCHEM_COMPOUND_CID>
101364

> <PUBCHEM_CONFORMER_RMSD>
1

> <PUBCHEM_CONFORMER_DIVERSEORDER>
1
68
333
151
52
73
146
497
20
377
215
271
430
31
499
106
462
440
292
189
404
175
60
203
397
459
69
225
79
309
48
167
332
178
33
95
121
43
336
6
437
7
62
127
3
375
479
119
92
238
139
91
478
196
486
84
29
324
177
457
65
356
158
180
66
64
352
14
331
4
470
80
9
51
53
113
37
143
45
77
26
153
8
431
182
394
314
2
395
425
212
294
19
475
390

> <PUBCHEM_MMFF94_PARTIAL_CHARGES>
5
1 -0.56
11 0.28
12 0.28
2 -0.56
8 0.56

> <PUBCHEM_EFFECTIVE_ROTOR_COUNT>
10

> <PUBCHEM_PHARMACOPHORE_FEATURES>
5
1 1 acceptor
1 10 hydrophobe
1 2 acceptor
3 3 4 6 hydrophobe
3 5 7 9 hydrophobe

> <PUBCHEM_HEAVY_ATOM_COUNT>
14

> <PUBCHEM_ATOM_DEF_STEREO_COUNT>
0

> <PUBCHEM_ATOM_UDEF_STEREO_COUNT>
0

> <PUBCHEM_BOND_DEF_STEREO_COUNT>
0

> <PUBCHEM_BOND_UDEF_STEREO_COUNT>
0

> <PUBCHEM_ISOTOPIC_ATOM_COUNT>
0

> <PUBCHEM_COMPONENT_COUNT>
1

> <PUBCHEM_CACTVS_TAUTO_COUNT>
1

> <PUBCHEM_CONFORMER_ID>
00018BF400000001

> <PUBCHEM_MMFF94_ENERGY>
9.0004

> <PUBCHEM_FEATURE_SELFOVERLAP>
25.423

> <PUBCHEM_SHAPE_FINGERPRINT>
10912923 1 17917435354479365555
12616971 3 18060695088043611023
13081056 2 18333166163971235477
13167372 99 18272656693526494297
13167823 11 18412259554379998127
13533116 47 18409731763998504035
13955234 65 18411136974081455504
14170010 4 18411697699605820448
14178000 15 18341332206623778808
15342168 16 18118122700094434861
17834072 33 18343300401441492855
17844677 252 18410580561585378745
18186145 218 17749383772011894435
20369508 70 18261670385667443434
20645477 70 18410855451675793079
23081809 10 17918274273504010443
23402539 116 17988073401738543359
23532345 1 18337111288273321280
23532345 12 18130510712661984721
23557571 272 13686306763638068635
23559900 14 18409165527983917723
5104073 3 18408889568467804715
522135 26 18409168809322912415
6025842 7 18411983593639687590
7364860 26 18411699911587746312
77188 2 18266458707836246116
90127 26 18040999527723626321
9971528 1 17968096443297605277
9999458 23 18335138682866968702

> <PUBCHEM_SHAPE_MULTIPOLES>
276.37
13.71
2.93
0.67
24.63
1.93
-0.02
-3.2
-0.03
-7.65
0.11
-0.06
0
-0.17

> <PUBCHEM_SHAPE_SELFOVERLAP>
493.5

> <PUBCHEM_SHAPE_VOLUME>
179.5

> <PUBCHEM_COORDINATE_TYPE>
2
5
10

$$$$
