101365
  -OEChem-11232109203D

 26 26  0     0  0  0  0  0  0999 V2000
    2.1387    0.2266   -0.1098 O   0  0  0  0  0  0  0  0  0  0  0  0
    1.1008   -1.6847    0.6445 O   0  0  0  0  0  0  0  0  0  0  0  0
   -1.4743   -1.7599   -0.3490 N   0  0  0  0  0  0  0  0  0  0  0  0
   -1.3986   -0.3614   -0.1632 C   0  0  0  0  0  0  0  0  0  0  0  0
   -0.1833    0.2574    0.1304 C   0  0  0  0  0  0  0  0  0  0  0  0
   -0.1300    1.6397    0.3097 C   0  0  0  0  0  0  0  0  0  0  0  0
   -2.5603    0.4023   -0.2775 C   0  0  0  0  0  0  0  0  0  0  0  0
    1.0482   -0.5120    0.2564 C   0  0  0  0  0  0  0  0  0  0  0  0
   -1.2918    2.4032    0.1953 C   0  0  0  0  0  0  0  0  0  0  0  0
   -2.5069    1.7845   -0.0984 C   0  0  0  0  0  0  0  0  0  0  0  0
    3.4124   -0.4223   -0.0301 C   0  0  0  0  0  0  0  0  0  0  0  0
   -2.6428   -2.5204   -0.0361 C   0  0  0  0  0  0  0  0  0  0  0  0
    4.4880    0.5470   -0.4722 C   0  0  0  0  0  0  0  0  0  0  0  0
    0.7971    2.1519    0.5536 H   0  0  0  0  0  0  0  0  0  0  0  0
   -3.5211   -0.0455   -0.5142 H   0  0  0  0  0  0  0  0  0  0  0  0
   -0.5982   -2.2640   -0.4280 H   0  0  0  0  0  0  0  0  0  0  0  0
   -1.2512    3.4792    0.3375 H   0  0  0  0  0  0  0  0  0  0  0  0
   -3.4110    2.3797   -0.1888 H   0  0  0  0  0  0  0  0  0  0  0  0
    3.5966   -0.7358    1.0033 H   0  0  0  0  0  0  0  0  0  0  0  0
    3.4137   -1.3021   -0.6830 H   0  0  0  0  0  0  0  0  0  0  0  0
   -3.0006   -2.3104    0.9773 H   0  0  0  0  0  0  0  0  0  0  0  0
   -2.4109   -3.5892   -0.0880 H   0  0  0  0  0  0  0  0  0  0  0  0
   -3.4497   -2.3314   -0.7510 H   0  0  0  0  0  0  0  0  0  0  0  0
    5.4769    0.0828   -0.4233 H   0  0  0  0  0  0  0  0  0  0  0  0
    4.3055    0.8833   -1.4981 H   0  0  0  0  0  0  0  0  0  0  0  0
    4.4849    1.4407    0.1605 H   0  0  0  0  0  0  0  0  0  0  0  0
  1  8  1  0  0  0  0
  1 11  1  0  0  0  0
  2  8  2  0  0  0  0
  3  4  1  0  0  0  0
  3 12  1  0  0  0  0
  3 16  1  0  0  0  0
  4  5  1  0  0  0  0
  4  7  2  0  0  0  0
  5  6  2  0  0  0  0
  5  8  1  0  0  0  0
  6  9  1  0  0  0  0
  6 14  1  0  0  0  0
  7 10  1  0  0  0  0
  7 15  1  0  0  0  0
  9 10  2  0  0  0  0
  9 17  1  0  0  0  0
 10 18  1  0  0  0  0
 11 13  1  0  0  0  0
 11 19  1  0  0  0  0
 11 20  1  0  0  0  0
 12 21  1  0  0  0  0
 12 22  1  0  0  0  0
 12 23  1  0  0  0  0
 13 24  1  0  0  0  0
 13 25  1  0  0  0  0
 13 26  1  0  0  0  0
M  END
> <PUBCHEM_COMPOUND_CID>
101365

> <PUBCHEM_CONFORMER_RMSD>
0.6

> <PUBCHEM_CONFORMER_DIVERSEORDER>
1
9
11
14
10
18
5
7
24
23
25
16
4
3
17
27
19
2
8
12
26
20
6
15
13
21
22

> <PUBCHEM_MMFF94_PARTIAL_CHARGES>
17
1 -0.43
10 -0.15
11 0.28
12 0.37
14 0.15
15 0.15
16 0.4
17 0.15
18 0.15
2 -0.57
3 -0.87
4 0.1
5 0.09
6 -0.15
7 -0.15
8 0.63
9 -0.15

> <PUBCHEM_EFFECTIVE_ROTOR_COUNT>
4

> <PUBCHEM_PHARMACOPHORE_FEATURES>
4
1 2 acceptor
1 3 cation
1 3 donor
6 4 5 6 7 9 10 rings

> <PUBCHEM_HEAVY_ATOM_COUNT>
13

> <PUBCHEM_ATOM_DEF_STEREO_COUNT>
0

> <PUBCHEM_ATOM_UDEF_STEREO_COUNT>
0

> <PUBCHEM_BOND_DEF_STEREO_COUNT>
0

> <PUBCHEM_BOND_UDEF_STEREO_COUNT>
0

> <PUBCHEM_ISOTOPIC_ATOM_COUNT>
0

> <PUBCHEM_COMPONENT_COUNT>
1

> <PUBCHEM_CACTVS_TAUTO_COUNT>
2

> <PUBCHEM_CONFORMER_ID>
00018BF500000001

> <PUBCHEM_MMFF94_ENERGY>
44.4333

> <PUBCHEM_FEATURE_SELFOVERLAP>
20.297

> <PUBCHEM_SHAPE_FINGERPRINT>
13024252 1 17312828173387432057
13380535 21 18269562654187566962
13380535 76 18198054781482488958
14325111 11 18337111177215782720
14897335 6 18264202517996116184
15279307 12 18189896422468727842
15490181 8 17764869096198336091
15669948 3 18411410700910893766
15775835 57 18264212400547481464
16945 1 18338786845399584641
1741750 31 18198903617438953600
193761 8 18195240251233630409
20645476 183 18261392174797007245
20871998 184 18202284723116026575
20871998 22 17979915239676268083
20871999 31 18339067255582927069
22213442 358 18269555116451137364
23402539 116 18271233955059269277
23557571 272 18200607981068951574
23559900 14 18272367530716020264
2748010 2 18124296462200105609
3071541 250 17977389657008613175
3312278 4 18409446994338882562
53812653 8 18266457611844171129
6333449 129 18341611494897470800

> <PUBCHEM_SHAPE_MULTIPOLES>
250.81
5.69
2.52
0.67
7.32
0.33
0
0.15
0.98
-2.56
-0.14
0.06
0.01
-0.24

> <PUBCHEM_SHAPE_SELFOVERLAP>
512.628

> <PUBCHEM_SHAPE_VOLUME>
146

> <PUBCHEM_COORDINATE_TYPE>
2
5
10

$$$$
