101306697
  -OEChem-11232108543D

 42 43  0     1  0  0  0  0  0999 V2000
   -1.9759    1.5137    1.1597 O   0  0  0  0  0  0  0  0  0  0  0  0
    0.0910   -0.2996   -0.1131 C   0  0  1  0  0  0  0  0  0  0  0  0
   -1.4528   -0.3259   -0.2913 C   0  0  1  0  0  0  0  0  0  0  0  0
    0.3892   -1.8246    0.0764 C   0  0  1  0  0  0  0  0  0  0  0  0
   -1.9408   -1.3660    0.7248 C   0  0  0  0  0  0  0  0  0  0  0  0
   -0.7672   -2.3170    0.9657 C   0  0  0  0  0  0  0  0  0  0  0  0
    0.7968    0.3407   -1.3269 C   0  0  0  0  0  0  0  0  0  0  0  0
    0.5285    0.5013    1.1518 C   0  0  0  0  0  0  0  0  0  0  0  0
   -2.1956    0.9983   -0.1551 C   0  0  0  0  0  0  0  0  0  0  0  0
    2.3267    0.3280   -1.2033 C   0  0  0  0  0  0  0  0  0  0  0  0
    0.4297   -2.6583   -1.2114 C   0  0  0  0  0  0  0  0  0  0  0  0
    2.0091    0.7449    1.2332 C   0  0  0  0  0  0  0  0  0  0  0  0
    2.8334    0.6600    0.1762 C   0  0  0  0  0  0  0  0  0  0  0  0
   -3.7012    0.7936   -0.3202 C   0  0  0  0  0  0  0  0  0  0  0  0
   -1.6814    2.0222   -1.1681 C   0  0  0  0  0  0  0  0  0  0  0  0
    4.3106    0.8888    0.3013 C   0  0  0  0  0  0  0  0  0  0  0  0
   -1.6721   -0.7230   -1.2935 H   0  0  0  0  0  0  0  0  0  0  0  0
    1.3415   -1.9843    0.5959 H   0  0  0  0  0  0  0  0  0  0  0  0
   -2.8050   -1.9160    0.3354 H   0  0  0  0  0  0  0  0  0  0  0  0
   -2.2436   -0.9234    1.6803 H   0  0  0  0  0  0  0  0  0  0  0  0
   -0.4727   -2.2703    2.0211 H   0  0  0  0  0  0  0  0  0  0  0  0
   -1.0464   -3.3569    0.7647 H   0  0  0  0  0  0  0  0  0  0  0  0
    0.5618    1.3938   -1.4402 H   0  0  0  0  0  0  0  0  0  0  0  0
    0.4998   -0.1388   -2.2666 H   0  0  0  0  0  0  0  0  0  0  0  0
    0.1949    0.0139    2.0737 H   0  0  0  0  0  0  0  0  0  0  0  0
    0.1393    1.5197    1.1485 H   0  0  0  0  0  0  0  0  0  0  0  0
    2.7389    1.0413   -1.9280 H   0  0  0  0  0  0  0  0  0  0  0  0
    2.7142   -0.6582   -1.4828 H   0  0  0  0  0  0  0  0  0  0  0  0
   -0.4957   -2.5783   -1.7895 H   0  0  0  0  0  0  0  0  0  0  0  0
    0.5750   -3.7177   -0.9709 H   0  0  0  0  0  0  0  0  0  0  0  0
    1.2605   -2.3644   -1.8575 H   0  0  0  0  0  0  0  0  0  0  0  0
    2.4057    1.0090    2.2101 H   0  0  0  0  0  0  0  0  0  0  0  0
   -3.9433    0.3443   -1.2890 H   0  0  0  0  0  0  0  0  0  0  0  0
   -4.2348    1.7489   -0.2464 H   0  0  0  0  0  0  0  0  0  0  0  0
   -4.1200    0.1655    0.4733 H   0  0  0  0  0  0  0  0  0  0  0  0
   -0.8136    2.5759   -0.8002 H   0  0  0  0  0  0  0  0  0  0  0  0
   -1.5143    1.5935   -2.1606 H   0  0  0  0  0  0  0  0  0  0  0  0
   -2.4348    2.8098   -1.3067 H   0  0  0  0  0  0  0  0  0  0  0  0
   -2.4374    2.3670    1.2287 H   0  0  0  0  0  0  0  0  0  0  0  0
    4.8603   -0.0023   -0.0186 H   0  0  0  0  0  0  0  0  0  0  0  0
    4.6084    1.1124    1.3311 H   0  0  0  0  0  0  0  0  0  0  0  0
    4.6190    1.7317   -0.3256 H   0  0  0  0  0  0  0  0  0  0  0  0
  1  9  1  0  0  0  0
  1 39  1  0  0  0  0
  2  3  1  0  0  0  0
  2  4  1  0  0  0  0
  2  7  1  0  0  0  0
  2  8  1  0  0  0  0
  3  5  1  0  0  0  0
  3  9  1  0  0  0  0
  3 17  1  0  0  0  0
  4  6  1  0  0  0  0
  4 11  1  0  0  0  0
  4 18  1  0  0  0  0
  5  6  1  0  0  0  0
  5 19  1  0  0  0  0
  5 20  1  0  0  0  0
  6 21  1  0  0  0  0
  6 22  1  0  0  0  0
  7 10  1  0  0  0  0
  7 23  1  0  0  0  0
  7 24  1  0  0  0  0
  8 12  1  0  0  0  0
  8 25  1  0  0  0  0
  8 26  1  0  0  0  0
  9 14  1  0  0  0  0
  9 15  1  0  0  0  0
 10 13  1  0  0  0  0
 10 27  1  0  0  0  0
 10 28  1  0  0  0  0
 11 29  1  0  0  0  0
 11 30  1  0  0  0  0
 11 31  1  0  0  0  0
 12 13  2  0  0  0  0
 12 32  1  0  0  0  0
 13 16  1  0  0  0  0
 14 33  1  0  0  0  0
 14 34  1  0  0  0  0
 14 35  1  0  0  0  0
 15 36  1  0  0  0  0
 15 37  1  0  0  0  0
 15 38  1  0  0  0  0
 16 40  1  0  0  0  0
 16 41  1  0  0  0  0
 16 42  1  0  0  0  0
M  END
> <PUBCHEM_COMPOUND_CID>
101306697

> <PUBCHEM_CONFORMER_RMSD>
0.6

> <PUBCHEM_CONFORMER_DIVERSEORDER>
2
4
5
6
7
1
8
3

> <PUBCHEM_MMFF94_PARTIAL_CHARGES>
9
1 -0.68
10 0.14
12 -0.29
13 -0.28
16 0.14
32 0.15
39 0.4
8 0.14
9 0.28

> <PUBCHEM_EFFECTIVE_ROTOR_COUNT>
2.4

> <PUBCHEM_PHARMACOPHORE_FEATURES>
5
1 1 acceptor
1 1 donor
3 9 14 15 hydrophobe
5 2 3 4 5 6 rings
6 2 7 8 10 12 13 rings

> <PUBCHEM_HEAVY_ATOM_COUNT>
16

> <PUBCHEM_ATOM_DEF_STEREO_COUNT>
3

> <PUBCHEM_ATOM_UDEF_STEREO_COUNT>
0

> <PUBCHEM_BOND_DEF_STEREO_COUNT>
0

> <PUBCHEM_BOND_UDEF_STEREO_COUNT>
0

> <PUBCHEM_ISOTOPIC_ATOM_COUNT>
0

> <PUBCHEM_COMPONENT_COUNT>
1

> <PUBCHEM_CACTVS_TAUTO_COUNT>
1

> <PUBCHEM_CONFORMER_ID>
0609D14900000002

> <PUBCHEM_MMFF94_ENERGY>
57.3146

> <PUBCHEM_FEATURE_SELFOVERLAP>
25.378

> <PUBCHEM_SHAPE_FINGERPRINT>
1 1 18268424646709979270
10922049 32 18412260631772723946
10948715 1 18410006607134382836
11132069 177 18335708260276219605
12138202 97 18201153364469060022
12423570 1 17466558650630025075
124424 183 18131632296823065792
13024252 1 13262939832769079831
13172582 1 18040720289596591412
13380535 76 18409165493771865551
13464514 151 17913782621494819984
13538477 17 17676485115781499264
13581323 91 18262518229454450170
13764800 53 18409737291373578833
14181834 199 18120937196358094430
14614273 12 18408884027574798821
14817 1 18049989280093145610
15076042 46 18043534021662163922
15375462 478 16950281801813846197
15775835 57 18333725814688328904
15852999 172 18408321064546733959
16945 1 18041285460100735110
18186145 218 18200884976294831388
19049666 15 18201736037039047766
200 152 13758356687107128188
20510252 161 18266182905566925784
20645476 183 17967808388008912842
20645477 56 18339919433071855512
20871998 184 18266184017990147255
21028194 46 18409443657154568289
21296965 12 18336817637222257167
21501502 16 18339071601805370291
21524375 3 18410003321442060458
21947302 44 18201160940554090638
22344851 341 18263653870057515723
22802520 49 18269294394635244254
23236772 104 17241322611227040336
23402539 116 18337382872372879007
23419403 2 17690331111018024450
23526113 38 17846786182896090764
23557571 272 18123479542446369516
23559900 14 18272934943240961856
25 1 18201158745688736816
2748010 2 18189640275262431455
276578 36 18336551508279791681
305870 269 18115864092556618216
430814 3 17894899724752702874
5084963 1 18120376458655280117
5706482 22 18408035225698523786
5845 1 17331374971452455742
6992083 37 17603864529035688684
7364860 26 18055632811333046151
77492 1 17168422782897886548
81228 2 17834656563438599747

> <PUBCHEM_SHAPE_MULTIPOLES>
323.4
4.93
2.36
1.35
2.43
1.46
0.08
-2.86
-0.32
-1.01
0.29
0.22
-0.01
0.55

> <PUBCHEM_SHAPE_SELFOVERLAP>
664.426

> <PUBCHEM_SHAPE_VOLUME>
188.3

> <PUBCHEM_COORDINATE_TYPE>
2
5
10

$$$$
