101363
  -OEChem-11232109183D

 46 45  0     0  0  0  0  0  0999 V2000
   -3.4830    1.3529    0.1798 O   0  0  0  0  0  0  0  0  0  0  0  0
   -3.5713   -0.9466   -0.3581 O   0  0  0  0  0  0  0  0  0  0  0  0
    1.6992    0.0625   -0.0603 C   0  0  0  0  0  0  0  0  0  0  0  0
    0.5344   -0.0628    0.9261 C   0  0  0  0  0  0  0  0  0  0  0  0
    3.0738    0.0368    0.6138 C   0  0  0  0  0  0  0  0  0  0  0  0
   -0.8408    0.0365    0.2606 C   0  0  0  0  0  0  0  0  0  0  0  0
    4.1970    0.1522   -0.4203 C   0  0  0  0  0  0  0  0  0  0  0  0
   -1.9660   -0.1316    1.2916 C   0  0  0  0  0  0  0  0  0  0  0  0
    5.5985    0.1102    0.1958 C   0  0  0  0  0  0  0  0  0  0  0  0
   -3.3690    0.0136    0.6822 C   0  0  0  0  0  0  0  0  0  0  0  0
    6.7207    0.1524   -0.8420 C   0  0  0  0  0  0  0  0  0  0  0  0
    8.0897    0.1223   -0.1796 C   0  0  0  0  0  0  0  0  0  0  0  0
   -4.7514    1.6027   -0.4116 C   0  0  0  0  0  0  0  0  0  0  0  0
   -3.4531   -2.2902    0.0885 C   0  0  0  0  0  0  0  0  0  0  0  0
   -4.8005    3.0061   -0.9100 C   0  0  0  0  0  0  0  0  0  0  0  0
   -3.6781   -3.2169   -1.0565 C   0  0  0  0  0  0  0  0  0  0  0  0
    1.5927    0.9992   -0.6216 H   0  0  0  0  0  0  0  0  0  0  0  0
    1.6363   -0.7531   -0.7913 H   0  0  0  0  0  0  0  0  0  0  0  0
    0.6161   -1.0221    1.4521 H   0  0  0  0  0  0  0  0  0  0  0  0
    0.6230    0.7235    1.6861 H   0  0  0  0  0  0  0  0  0  0  0  0
    3.1876   -0.8964    1.1783 H   0  0  0  0  0  0  0  0  0  0  0  0
    3.1484    0.8619    1.3319 H   0  0  0  0  0  0  0  0  0  0  0  0
   -0.9291    1.0083   -0.2389 H   0  0  0  0  0  0  0  0  0  0  0  0
   -0.9222   -0.7335   -0.5149 H   0  0  0  0  0  0  0  0  0  0  0  0
    4.0806    1.0876   -0.9816 H   0  0  0  0  0  0  0  0  0  0  0  0
    4.1026   -0.6658   -1.1454 H   0  0  0  0  0  0  0  0  0  0  0  0
   -1.8459    0.6549    2.0490 H   0  0  0  0  0  0  0  0  0  0  0  0
   -1.8506   -1.0809    1.8236 H   0  0  0  0  0  0  0  0  0  0  0  0
    5.6984   -0.8035    0.7949 H   0  0  0  0  0  0  0  0  0  0  0  0
    5.7093    0.9548    0.8872 H   0  0  0  0  0  0  0  0  0  0  0  0
   -4.1256   -0.1288    1.4643 H   0  0  0  0  0  0  0  0  0  0  0  0
    6.6290   -0.7016   -1.5229 H   0  0  0  0  0  0  0  0  0  0  0  0
    6.6318    1.0618   -1.4472 H   0  0  0  0  0  0  0  0  0  0  0  0
    8.2205   -0.7909    0.4095 H   0  0  0  0  0  0  0  0  0  0  0  0
    8.2234    0.9823    0.4842 H   0  0  0  0  0  0  0  0  0  0  0  0
    8.8781    0.1530   -0.9382 H   0  0  0  0  0  0  0  0  0  0  0  0
   -5.5389    1.4423    0.3333 H   0  0  0  0  0  0  0  0  0  0  0  0
   -4.9182    0.9173   -1.2496 H   0  0  0  0  0  0  0  0  0  0  0  0
   -4.1879   -2.4800    0.8785 H   0  0  0  0  0  0  0  0  0  0  0  0
   -2.4532   -2.4963    0.4776 H   0  0  0  0  0  0  0  0  0  0  0  0
   -4.0130    3.1855   -1.6498 H   0  0  0  0  0  0  0  0  0  0  0  0
   -4.6310    3.7165   -0.0938 H   0  0  0  0  0  0  0  0  0  0  0  0
   -5.7674    3.2297   -1.3701 H   0  0  0  0  0  0  0  0  0  0  0  0
   -3.5972   -4.2620   -0.7434 H   0  0  0  0  0  0  0  0  0  0  0  0
   -4.6697   -3.0615   -1.4951 H   0  0  0  0  0  0  0  0  0  0  0  0
   -2.9507   -3.0354   -1.8552 H   0  0  0  0  0  0  0  0  0  0  0  0
  1 10  1  0  0  0  0
  1 13  1  0  0  0  0
  2 10  1  0  0  0  0
  2 14  1  0  0  0  0
  3  4  1  0  0  0  0
  3  5  1  0  0  0  0
  3 17  1  0  0  0  0
  3 18  1  0  0  0  0
  4  6  1  0  0  0  0
  4 19  1  0  0  0  0
  4 20  1  0  0  0  0
  5  7  1  0  0  0  0
  5 21  1  0  0  0  0
  5 22  1  0  0  0  0
  6  8  1  0  0  0  0
  6 23  1  0  0  0  0
  6 24  1  0  0  0  0
  7  9  1  0  0  0  0
  7 25  1  0  0  0  0
  7 26  1  0  0  0  0
  8 10  1  0  0  0  0
  8 27  1  0  0  0  0
  8 28  1  0  0  0  0
  9 11  1  0  0  0  0
  9 29  1  0  0  0  0
  9 30  1  0  0  0  0
 10 31  1  0  0  0  0
 11 12  1  0  0  0  0
 11 32  1  0  0  0  0
 11 33  1  0  0  0  0
 12 34  1  0  0  0  0
 12 35  1  0  0  0  0
 12 36  1  0  0  0  0
 13 15  1  0  0  0  0
 13 37  1  0  0  0  0
 13 38  1  0  0  0  0
 14 16  1  0  0  0  0
 14 39  1  0  0  0  0
 14 40  1  0  0  0  0
 15 41  1  0  0  0  0
 15 42  1  0  0  0  0
 15 43  1  0  0  0  0
 16 44  1  0  0  0  0
 16 45  1  0  0  0  0
 16 46  1  0  0  0  0
M  END
> <PUBCHEM_COMPOUND_CID>
101363

> <PUBCHEM_CONFORMER_RMSD>
1

> <PUBCHEM_CONFORMER_DIVERSEORDER>
1
152
196
98
136
6
204
168
235
101
141
12
58
220
221
15
185
92
107
91
61
245
63
177
3
45
93
87
244
194
210
97
86
247
137
146
130
160
105
60
243
34
163
41
182
143
23
153
36
171
179
29
150
206
216
113
7
75
76
209
236
28
19
68
205
35
103
32
90
116
169
172
212
240
22
71
170
99
17
72
231
241
233
188
122
242
82
85
132
125
52
88
47
112
186
66
191
31
187
159
81
84
174
183
151
94
54
14
156
237
181
102
16
165
37
219
65
73
21
131
119
218
175
8
207
48
224
55
46
44
166
250
147
142
33
217
126
222
195
11
167
100
104
199
123
228
2
5
51
213
27
176
203
78
139
57
13
157
173
9
200
129
128
197
226
211
223
248
230
215
164
155
10
149
79
77
120
178
26
252
42
229
158
20
53
38
43
121
198
124
208
96
201
30
148
74
214
117
184
56
4
234
50
40
162
25
251
111
161
115
39
189
238
225
89
127
227
109
70
180
145
18
135
62
118
24
106
49
95
133
83
59
192
69
110
80
193
249
114
64
140
67
134
246
108
232
154
202
144
138
239
190

> <PUBCHEM_MMFF94_PARTIAL_CHARGES>
5
1 -0.56
10 0.56
13 0.28
14 0.28
2 -0.56

> <PUBCHEM_EFFECTIVE_ROTOR_COUNT>
12

> <PUBCHEM_PHARMACOPHORE_FEATURES>
3
1 1 acceptor
1 12 hydrophobe
1 2 acceptor

> <PUBCHEM_HEAVY_ATOM_COUNT>
16

> <PUBCHEM_ATOM_DEF_STEREO_COUNT>
0

> <PUBCHEM_ATOM_UDEF_STEREO_COUNT>
0

> <PUBCHEM_BOND_DEF_STEREO_COUNT>
0

> <PUBCHEM_BOND_UDEF_STEREO_COUNT>
0

> <PUBCHEM_ISOTOPIC_ATOM_COUNT>
0

> <PUBCHEM_COMPONENT_COUNT>
1

> <PUBCHEM_CACTVS_TAUTO_COUNT>
1

> <PUBCHEM_CONFORMER_ID>
00018BF300000001

> <PUBCHEM_MMFF94_ENERGY>
10.3551

> <PUBCHEM_FEATURE_SELFOVERLAP>
15.261

> <PUBCHEM_SHAPE_FINGERPRINT>
10680689 15 18410015463594259523
10803635 8 18343019982156545671
11809386 21 18337665408032938731
12091667 2 18114187449505021778
1420 363 16773808013045930466
14251752 14 18409165477156193536
14729087 3 18187364307952764108
15716309 27 12967129411061156396
167882 2 18050845521090602287
17093844 174 18411979170097620960
17834072 33 18340773749400905504
20621476 66 17967819292994654988
20621476 8 17313104104204746788
20645477 56 18411700959591597233
21054139 6 18338796827552959542
21426921 1 18409447020868302627
21709351 56 18409728495502148100
220451 1 18412553102520048370
23081809 10 17822008727483029650
23402539 116 18186522116172906900
23402655 69 18259982643797588840
23559900 14 17988920081057196240
300161 21 18333730191766055026
328310 630 16660658387943587092
531348 171 18336827502836385338
559249 180 18412544314853631402
6327066 14 17970620802021322605
633830 44 17385729066942354338
7062679 6 17677057845528999924

> <PUBCHEM_SHAPE_MULTIPOLES>
317.53
18.54
2.5
1.03
38.41
0.73
-0.05
-3.9
5.02
-7.88
1.3
-0.45
0.08
0.09

> <PUBCHEM_SHAPE_SELFOVERLAP>
571.483

> <PUBCHEM_SHAPE_VOLUME>
204.5

> <PUBCHEM_COORDINATE_TYPE>
2
5
10

$$$$
