101549
  -OEChem-11232109053D

 40 41  0     1  0  0  0  0  0999 V2000
    3.0494   -0.5119    1.5164 O   0  0  0  0  0  0  0  0  0  0  0  0
    0.2235   -0.6844    0.0098 C   0  0  2  0  0  0  0  0  0  0  0  0
    0.1042    0.7567   -0.5408 C   0  0  1  0  0  0  0  0  0  0  0  0
    1.2784   -1.5734   -0.6738 C   0  0  1  0  0  0  0  0  0  0  0  0
   -1.1955   -1.2609   -0.1609 C   0  0  0  0  0  0  0  0  0  0  0  0
   -1.2735    1.1912    0.0098 C   0  0  0  0  0  0  0  0  0  0  0  0
   -2.0820   -0.0690    0.0155 C   0  0  0  0  0  0  0  0  0  0  0  0
    2.6466   -0.9017   -0.8736 C   0  0  0  0  0  0  0  0  0  0  0  0
    1.2083    1.7330   -0.1622 C   0  0  0  0  0  0  0  0  0  0  0  0
    3.1235    0.0582    0.2186 C   0  0  1  0  0  0  0  0  0  0  0  0
    1.4253   -2.9109    0.0680 C   0  0  0  0  0  0  0  0  0  0  0  0
    2.4548    1.4007    0.2247 C   0  0  0  0  0  0  0  0  0  0  0  0
   -3.4114   -0.1216    0.1503 C   0  0  0  0  0  0  0  0  0  0  0  0
    0.8561    3.1999   -0.2622 C   0  0  0  0  0  0  0  0  0  0  0  0
   -4.1619   -1.4227    0.1475 C   0  0  0  0  0  0  0  0  0  0  0  0
   -4.2457    1.1169    0.3130 C   0  0  0  0  0  0  0  0  0  0  0  0
    0.4368   -0.6329    1.0882 H   0  0  0  0  0  0  0  0  0  0  0  0
    0.0464    0.7226   -1.6387 H   0  0  0  0  0  0  0  0  0  0  0  0
    0.9190   -1.8256   -1.6817 H   0  0  0  0  0  0  0  0  0  0  0  0
   -1.3809   -2.0345    0.5911 H   0  0  0  0  0  0  0  0  0  0  0  0
   -1.3340   -1.6820   -1.1633 H   0  0  0  0  0  0  0  0  0  0  0  0
   -1.7069    1.9639   -0.6339 H   0  0  0  0  0  0  0  0  0  0  0  0
   -1.1886    1.5720    1.0350 H   0  0  0  0  0  0  0  0  0  0  0  0
    2.6331   -0.3611   -1.8303 H   0  0  0  0  0  0  0  0  0  0  0  0
    3.4055   -1.6857   -0.9981 H   0  0  0  0  0  0  0  0  0  0  0  0
    4.1866    0.2507    0.0218 H   0  0  0  0  0  0  0  0  0  0  0  0
    2.1740   -3.5470   -0.4163 H   0  0  0  0  0  0  0  0  0  0  0  0
    1.7258   -2.7665    1.1099 H   0  0  0  0  0  0  0  0  0  0  0  0
    0.4830   -3.4682    0.0663 H   0  0  0  0  0  0  0  0  0  0  0  0
    3.1257    2.2102    0.5139 H   0  0  0  0  0  0  0  0  0  0  0  0
    0.1435    3.4861    0.5172 H   0  0  0  0  0  0  0  0  0  0  0  0
    0.4153    3.4161   -1.2412 H   0  0  0  0  0  0  0  0  0  0  0  0
    1.7330    3.8481   -0.1560 H   0  0  0  0  0  0  0  0  0  0  0  0
   -4.6333   -1.5843    1.1226 H   0  0  0  0  0  0  0  0  0  0  0  0
   -4.9510   -1.3946   -0.6121 H   0  0  0  0  0  0  0  0  0  0  0  0
   -3.5437   -2.2969   -0.0707 H   0  0  0  0  0  0  0  0  0  0  0  0
   -4.8902    1.2512   -0.5621 H   0  0  0  0  0  0  0  0  0  0  0  0
   -4.8865    1.0192    1.1962 H   0  0  0  0  0  0  0  0  0  0  0  0
   -3.6666    2.0339    0.4459 H   0  0  0  0  0  0  0  0  0  0  0  0
    3.5803   -1.3266    1.5082 H   0  0  0  0  0  0  0  0  0  0  0  0
  1 10  1  0  0  0  0
  1 40  1  0  0  0  0
  2  3  1  0  0  0  0
  2  4  1  0  0  0  0
  2  5  1  0  0  0  0
  2 17  1  0  0  0  0
  3  6  1  0  0  0  0
  3  9  1  0  0  0  0
  3 18  1  0  0  0  0
  4  8  1  0  0  0  0
  4 11  1  0  0  0  0
  4 19  1  0  0  0  0
  5  7  1  0  0  0  0
  5 20  1  0  0  0  0
  5 21  1  0  0  0  0
  6  7  1  0  0  0  0
  6 22  1  0  0  0  0
  6 23  1  0  0  0  0
  7 13  2  0  0  0  0
  8 10  1  0  0  0  0
  8 24  1  0  0  0  0
  8 25  1  0  0  0  0
  9 12  2  0  0  0  0
  9 14  1  0  0  0  0
 10 12  1  0  0  0  0
 10 26  1  0  0  0  0
 11 27  1  0  0  0  0
 11 28  1  0  0  0  0
 11 29  1  0  0  0  0
 12 30  1  0  0  0  0
 13 15  1  0  0  0  0
 13 16  1  0  0  0  0
 14 31  1  0  0  0  0
 14 32  1  0  0  0  0
 14 33  1  0  0  0  0
 15 34  1  0  0  0  0
 15 35  1  0  0  0  0
 15 36  1  0  0  0  0
 16 37  1  0  0  0  0
 16 38  1  0  0  0  0
 16 39  1  0  0  0  0
M  END
> <PUBCHEM_COMPOUND_CID>
101549

> <PUBCHEM_CONFORMER_RMSD>
0.6

> <PUBCHEM_CONFORMER_DIVERSEORDER>
1
7
17
3
12
13
6
8
22
11
16
19
23
21
20
15
2
4
10
5
9
14
18

> <PUBCHEM_MMFF94_PARTIAL_CHARGES>
14
1 -0.68
10 0.42
12 -0.29
13 -0.28
14 0.14
15 0.14
16 0.14
3 0.14
30 0.15
40 0.4
5 0.14
6 0.14
7 -0.28
9 -0.28

> <PUBCHEM_EFFECTIVE_ROTOR_COUNT>
1

> <PUBCHEM_PHARMACOPHORE_FEATURES>
5
1 1 acceptor
1 1 donor
3 13 15 16 hydrophobe
5 2 3 5 6 7 rings
7 2 3 4 8 9 10 12 rings

> <PUBCHEM_HEAVY_ATOM_COUNT>
16

> <PUBCHEM_ATOM_DEF_STEREO_COUNT>
0

> <PUBCHEM_ATOM_UDEF_STEREO_COUNT>
4

> <PUBCHEM_BOND_DEF_STEREO_COUNT>
0

> <PUBCHEM_BOND_UDEF_STEREO_COUNT>
0

> <PUBCHEM_ISOTOPIC_ATOM_COUNT>
0

> <PUBCHEM_COMPONENT_COUNT>
1

> <PUBCHEM_CACTVS_TAUTO_COUNT>
1

> <PUBCHEM_CONFORMER_ID>
00018CAD00000001

> <PUBCHEM_MMFF94_ENERGY>
36.852

> <PUBCHEM_FEATURE_SELFOVERLAP>
25.399

> <PUBCHEM_SHAPE_FINGERPRINT>
10493431 412 18124587841709407488
10608611 8 18410012161049440005
10967382 1 18411140263730959215
10980938 120 18410578396146167719
11132069 177 18413384328435131883
11471102 20 18411417310902394901
12251169 10 18264764531319677936
12382932 28 18413387618316738193
12696612 119 18410292540376804644
13140716 1 18267019642563620115
13380536 305 18338807839373716452
14144814 61 18411703201116074121
14178342 30 18341328890539378123
14251717 144 18411980303795063063
14790565 3 18265061408540645036
15196674 1 18411703196493942300
15442244 35 18125164831752182985
15490181 8 17980197813985154758
15501101 241 18260833695698793397
15536298 74 18202006516567067479
16945 1 18411134727512820495
18186145 218 18201450125324164647
193761 8 17762056541112025580
20511035 2 17899705844754549900
20559304 39 18340774830989203389
20606313 2 18411420613431545548
20645477 70 18263640826742510263
20871998 22 18339364041743481622
21421861 104 17680709215964148274
21501502 16 18194400219743481247
21501925 9 18411696621368588403
2255824 54 18262806292478716684
23184049 29 17831856846262887146
2334 1 17979074121570104855
23402539 116 18341885277925455598
23463225 33 18336262439584812029
23559900 14 18269556048317064110
2748010 2 18124029027223377692
3060560 45 18341899627374125710
34934 24 18339074883302451999
5104073 3 18411703205463627419
53812653 166 18412826858717535898
54173680 148 17257936988116885750
581208 293 18342454854691453271
5939293 188 18411417336540732364
6333272 397 18267305507166069387
7364860 26 18342463685291978397
7832392 63 18268997496900471833
81228 2 17901959542780756392
9709674 26 18338805614802657703

> <PUBCHEM_SHAPE_MULTIPOLES>
323.4
6.32
2.81
0.83
6.15
0.53
-0.11
-0.63
-1.04
-1.26
0.2
-0.49
-0.1
0

> <PUBCHEM_SHAPE_SELFOVERLAP>
661.352

> <PUBCHEM_SHAPE_VOLUME>
188

> <PUBCHEM_COORDINATE_TYPE>
2
5
10

$$$$
