10154345
  -OEChem-11232109463D

 33 33  0     1  0  0  0  0  0999 V2000
   -2.4052   -0.7093   -0.1021 O   0  0  0  0  0  0  0  0  0  0  0  0
   -4.3040   -1.9489    0.2490 O   0  0  0  0  0  0  0  0  0  0  0  0
   -2.1289    0.6685   -0.3891 C   0  0  2  0  0  0  0  0  0  0  0  0
   -0.7961    1.0640    0.2175 C   0  0  0  0  0  0  0  0  0  0  0  0
    0.3542    0.2557   -0.3826 C   0  0  0  0  0  0  0  0  0  0  0  0
   -3.3013    1.4180    0.2030 C   0  0  0  0  0  0  0  0  0  0  0  0
    1.7008    0.6811    0.2075 C   0  0  0  0  0  0  0  0  0  0  0  0
   -4.4427    0.4549   -0.0210 C   0  0  0  0  0  0  0  0  0  0  0  0
    2.8460   -0.1559   -0.3669 C   0  0  0  0  0  0  0  0  0  0  0  0
    4.2104    0.1792    0.2423 C   0  0  0  0  0  0  0  0  0  0  0  0
   -3.7526   -0.8735    0.0735 C   0  0  0  0  0  0  0  0  0  0  0  0
    5.3429   -0.7070   -0.2781 C   0  0  0  0  0  0  0  0  0  0  0  0
    6.6766   -0.3267    0.3469 C   0  0  0  0  0  0  0  0  0  0  0  0
   -2.1024    0.7843   -1.4800 H   0  0  0  0  0  0  0  0  0  0  0  0
   -0.6211    2.1345    0.0579 H   0  0  0  0  0  0  0  0  0  0  0  0
   -0.8131    0.8900    1.3009 H   0  0  0  0  0  0  0  0  0  0  0  0
    0.1984   -0.8133   -0.1942 H   0  0  0  0  0  0  0  0  0  0  0  0
    0.3735    0.3926   -1.4707 H   0  0  0  0  0  0  0  0  0  0  0  0
   -3.4637    2.3955   -0.2599 H   0  0  0  0  0  0  0  0  0  0  0  0
   -3.1641    1.5725    1.2807 H   0  0  0  0  0  0  0  0  0  0  0  0
    1.8808    1.7422   -0.0019 H   0  0  0  0  0  0  0  0  0  0  0  0
    1.6761    0.5654    1.2978 H   0  0  0  0  0  0  0  0  0  0  0  0
    2.8918   -0.0129   -1.4536 H   0  0  0  0  0  0  0  0  0  0  0  0
    2.6345   -1.2190   -0.1966 H   0  0  0  0  0  0  0  0  0  0  0  0
   -4.8765    0.5625   -1.0192 H   0  0  0  0  0  0  0  0  0  0  0  0
   -5.2109    0.5567    0.7488 H   0  0  0  0  0  0  0  0  0  0  0  0
    4.1496    0.0789    1.3332 H   0  0  0  0  0  0  0  0  0  0  0  0
    4.4451    1.2305    0.0344 H   0  0  0  0  0  0  0  0  0  0  0  0
    5.4148   -0.6146   -1.3678 H   0  0  0  0  0  0  0  0  0  0  0  0
    5.1249   -1.7577   -0.0545 H   0  0  0  0  0  0  0  0  0  0  0  0
    6.9374    0.7107    0.1143 H   0  0  0  0  0  0  0  0  0  0  0  0
    6.6456   -0.4379    1.4355 H   0  0  0  0  0  0  0  0  0  0  0  0
    7.4727   -0.9716   -0.0380 H   0  0  0  0  0  0  0  0  0  0  0  0
  1  3  1  0  0  0  0
  1 11  1  0  0  0  0
  2 11  2  0  0  0  0
  3  4  1  0  0  0  0
  3  6  1  0  0  0  0
  3 14  1  0  0  0  0
  4  5  1  0  0  0  0
  4 15  1  0  0  0  0
  4 16  1  0  0  0  0
  5  7  1  0  0  0  0
  5 17  1  0  0  0  0
  5 18  1  0  0  0  0
  6  8  1  0  0  0  0
  6 19  1  0  0  0  0
  6 20  1  0  0  0  0
  7  9  1  0  0  0  0
  7 21  1  0  0  0  0
  7 22  1  0  0  0  0
  8 11  1  0  0  0  0
  8 25  1  0  0  0  0
  8 26  1  0  0  0  0
  9 10  1  0  0  0  0
  9 23  1  0  0  0  0
  9 24  1  0  0  0  0
 10 12  1  0  0  0  0
 10 27  1  0  0  0  0
 10 28  1  0  0  0  0
 12 13  1  0  0  0  0
 12 29  1  0  0  0  0
 12 30  1  0  0  0  0
 13 31  1  0  0  0  0
 13 32  1  0  0  0  0
 13 33  1  0  0  0  0
M  END
> <PUBCHEM_COMPOUND_CID>
10154345

> <PUBCHEM_CONFORMER_RMSD>
0.8

> <PUBCHEM_CONFORMER_DIVERSEORDER>
1
65
19
49
8
54
52
32
48
2
13
55
17
6
45
21
64
18
53
15
59
4
33
66
61
12
63
35
31
60
24
56
16
36
7
40
57
26
29
3
27
51
11
25
9
5
44
46
62
23
50
47
39
30
58
37
28
14
10
42
41
22
34
38
20
43

> <PUBCHEM_MMFF94_PARTIAL_CHARGES>
5
1 -0.43
11 0.66
2 -0.57
3 0.28
8 0.06

> <PUBCHEM_EFFECTIVE_ROTOR_COUNT>
6.8

> <PUBCHEM_PHARMACOPHORE_FEATURES>
5
1 13 hydrophobe
1 2 acceptor
3 4 5 7 hydrophobe
3 9 10 12 hydrophobe
5 1 3 6 8 11 rings

> <PUBCHEM_HEAVY_ATOM_COUNT>
13

> <PUBCHEM_ATOM_DEF_STEREO_COUNT>
1

> <PUBCHEM_ATOM_UDEF_STEREO_COUNT>
0

> <PUBCHEM_BOND_DEF_STEREO_COUNT>
0

> <PUBCHEM_BOND_UDEF_STEREO_COUNT>
0

> <PUBCHEM_ISOTOPIC_ATOM_COUNT>
0

> <PUBCHEM_COMPONENT_COUNT>
1

> <PUBCHEM_CACTVS_TAUTO_COUNT>
2

> <PUBCHEM_CONFORMER_ID>
009AF16900000001

> <PUBCHEM_MMFF94_ENERGY>
3.0037

> <PUBCHEM_FEATURE_SELFOVERLAP>
25.384

> <PUBCHEM_SHAPE_FINGERPRINT>
10680689 15 17749390347369610253
10912923 1 18040437672823289584
11128504 68 17022910068673020836
11287383 113 18412825802968113904
11315181 36 18410576192859950744
12091667 2 16877944910748397388
12757275 245 18335140925193045563
13167823 11 18335700529461810842
13288520 33 18335139804185176949
13740256 8 18411702123095055136
14123238 8 18131068225846211412
1420 363 18131635578225474702
14251718 22 18334295379692875336
14251731 8 18409165489487317916
14251732 16 18339078298318572896
14252887 29 16845300410688312500
17834072 33 18260271867354406356
17834076 25 14923946734645408268
20279233 1 17632301159351749453
20767249 213 10807933764864424403
20828058 44 18413389830251379724
21426921 1 18261108535199458165
220451 1 18186806834008240210
22485316 2 18335137562064561792
22896161 15 18336828693201267412
23402539 116 16877942720030155612
23559900 14 18411129268615162336
23590187 198 18259704480346158230
26918003 58 18202563968830565544
42 15 18413672409282631332
4214541 1 18410575063199227196
42788 4 18413388722809232748
49783359 22 18272367581369748950
57483677 66 18333729092407661242
7062679 117 18259989292591722130

> <PUBCHEM_SHAPE_MULTIPOLES>
255.8
14.2
1.3
0.67
18.17
0.31
0.01
3.83
-1.15
-1.81
-0.11
0.13
-0.02
0.21

> <PUBCHEM_SHAPE_SELFOVERLAP>
489.502

> <PUBCHEM_SHAPE_VOLUME>
158.7

> <PUBCHEM_COORDINATE_TYPE>
2
5
10

$$$$
