10176245
  -OEChem-11232109023D

 33 32  0     1  0  0  0  0  0999 V2000
    2.3748    0.0087    1.4759 O   0  0  0  0  0  0  0  0  0  0  0  0
   -1.4971   -0.6043   -0.5679 C   0  0  2  0  0  0  0  0  0  0  0  0
   -0.2314    0.0677    0.0187 C   0  0  0  0  0  0  0  0  0  0  0  0
   -2.7714    0.1911   -0.1564 C   0  0  0  0  0  0  0  0  0  0  0  0
    1.0792   -0.5463   -0.5017 C   0  0  0  0  0  0  0  0  0  0  0  0
    2.3571    0.1215    0.0514 C   0  0  0  0  0  0  0  0  0  0  0  0
   -1.5620   -2.0907   -0.1956 C   0  0  0  0  0  0  0  0  0  0  0  0
   -3.0323    0.2128    1.3523 C   0  0  0  0  0  0  0  0  0  0  0  0
   -2.7465    1.6264   -0.6942 C   0  0  0  0  0  0  0  0  0  0  0  0
    2.4325    1.6101   -0.2911 C   0  0  0  0  0  0  0  0  0  0  0  0
    3.5968   -0.5969   -0.4914 C   0  0  0  0  0  0  0  0  0  0  0  0
   -1.4282   -0.5544   -1.6635 H   0  0  0  0  0  0  0  0  0  0  0  0
   -0.2448    0.0012    1.1124 H   0  0  0  0  0  0  0  0  0  0  0  0
   -0.2308    1.1284   -0.2420 H   0  0  0  0  0  0  0  0  0  0  0  0
   -3.6268   -0.3118   -0.6279 H   0  0  0  0  0  0  0  0  0  0  0  0
    1.1041   -1.6052   -0.2187 H   0  0  0  0  0  0  0  0  0  0  0  0
    1.0864   -0.5035   -1.5981 H   0  0  0  0  0  0  0  0  0  0  0  0
   -1.4295   -2.2443    0.8799 H   0  0  0  0  0  0  0  0  0  0  0  0
   -2.5283   -2.5178   -0.4845 H   0  0  0  0  0  0  0  0  0  0  0  0
   -0.7903   -2.6648   -0.7177 H   0  0  0  0  0  0  0  0  0  0  0  0
   -2.2517    0.7534    1.8964 H   0  0  0  0  0  0  0  0  0  0  0  0
   -3.0986   -0.7998    1.7610 H   0  0  0  0  0  0  0  0  0  0  0  0
   -3.9843    0.7117    1.5657 H   0  0  0  0  0  0  0  0  0  0  0  0
   -2.0523    2.2680   -0.1431 H   0  0  0  0  0  0  0  0  0  0  0  0
   -3.7404    2.0788   -0.6012 H   0  0  0  0  0  0  0  0  0  0  0  0
   -2.4750    1.6465   -1.7546 H   0  0  0  0  0  0  0  0  0  0  0  0
    2.3357    1.7815   -1.3680 H   0  0  0  0  0  0  0  0  0  0  0  0
    3.3887    2.0341    0.0381 H   0  0  0  0  0  0  0  0  0  0  0  0
    1.6611    2.1855    0.2311 H   0  0  0  0  0  0  0  0  0  0  0  0
    3.5860   -1.6580   -0.2169 H   0  0  0  0  0  0  0  0  0  0  0  0
    3.6607   -0.5222   -1.5819 H   0  0  0  0  0  0  0  0  0  0  0  0
    4.5125   -0.1771   -0.0592 H   0  0  0  0  0  0  0  0  0  0  0  0
    2.3266   -0.9358    1.7025 H   0  0  0  0  0  0  0  0  0  0  0  0
  1  6  1  0  0  0  0
  1 33  1  0  0  0  0
  2  3  1  0  0  0  0
  2  4  1  0  0  0  0
  2  7  1  0  0  0  0
  2 12  1  0  0  0  0
  3  5  1  0  0  0  0
  3 13  1  0  0  0  0
  3 14  1  0  0  0  0
  4  8  1  0  0  0  0
  4  9  1  0  0  0  0
  4 15  1  0  0  0  0
  5  6  1  0  0  0  0
  5 16  1  0  0  0  0
  5 17  1  0  0  0  0
  6 10  1  0  0  0  0
  6 11  1  0  0  0  0
  7 18  1  0  0  0  0
  7 19  1  0  0  0  0
  7 20  1  0  0  0  0
  8 21  1  0  0  0  0
  8 22  1  0  0  0  0
  8 23  1  0  0  0  0
  9 24  1  0  0  0  0
  9 25  1  0  0  0  0
  9 26  1  0  0  0  0
 10 27  1  0  0  0  0
 10 28  1  0  0  0  0
 10 29  1  0  0  0  0
 11 30  1  0  0  0  0
 11 31  1  0  0  0  0
 11 32  1  0  0  0  0
M  END
> <PUBCHEM_COMPOUND_CID>
10176245

> <PUBCHEM_CONFORMER_RMSD>
0.6

> <PUBCHEM_CONFORMER_DIVERSEORDER>
1
13
6
3
12
8
11
9
5
10
7
2
4

> <PUBCHEM_MMFF94_PARTIAL_CHARGES>
3
1 -0.68
33 0.4
6 0.28

> <PUBCHEM_EFFECTIVE_ROTOR_COUNT>
4

> <PUBCHEM_PHARMACOPHORE_FEATURES>
6
1 1 acceptor
1 1 donor
1 7 hydrophobe
3 4 8 9 hydrophobe
3 6 10 11 hydrophobe
4 2 3 4 5 hydrophobe

> <PUBCHEM_HEAVY_ATOM_COUNT>
11

> <PUBCHEM_ATOM_DEF_STEREO_COUNT>
1

> <PUBCHEM_ATOM_UDEF_STEREO_COUNT>
0

> <PUBCHEM_BOND_DEF_STEREO_COUNT>
0

> <PUBCHEM_BOND_UDEF_STEREO_COUNT>
0

> <PUBCHEM_ISOTOPIC_ATOM_COUNT>
0

> <PUBCHEM_COMPONENT_COUNT>
1

> <PUBCHEM_CACTVS_TAUTO_COUNT>
1

> <PUBCHEM_CONFORMER_ID>
009B46F500000001

> <PUBCHEM_MMFF94_ENERGY>
21.8907

> <PUBCHEM_FEATURE_SELFOVERLAP>
30.701

> <PUBCHEM_SHAPE_FINGERPRINT>
12162725 195 16128651946669549297
124424 183 18114453453550732564
12716758 59 18343857831628891075
12932764 1 17821720658998381038
14144814 61 18407755941186678566
14325111 11 18412825819493738470
14390081 3 17132111351171351835
15775835 57 18113899329707566637
18186145 218 18059579048622056911
19973954 147 18338796844041199812
20281407 28 11458430136977134461
20645464 45 18201729431215855463
20653085 51 18410578374845475985
21028194 46 18131912646048807503
3248919 1 18201431523493699678
74978 22 18410006654547724334
8030462 33 17240754103617540774
81228 2 17982722267061034567
93112 12 18411701002055785174

> <PUBCHEM_SHAPE_MULTIPOLES>
220.51
6.09
1.61
1.06
1.68
0.11
-0.37
-1.03
-0.4
-0.6
0.35
-0.22
-0.08
0.15

> <PUBCHEM_SHAPE_SELFOVERLAP>
402.121

> <PUBCHEM_SHAPE_VOLUME>
142.8

> <PUBCHEM_COORDINATE_TYPE>
2
5
10

$$$$
