10199055
  -OEChem-11232109413D

 44 44  0     1  0  0  0  0  0999 V2000
    0.1469   -0.7178   -0.0230 O   0  0  0  0  0  0  0  0  0  0  0  0
    2.3455   -0.5141    0.0650 O   0  0  0  0  0  0  0  0  0  0  0  0
    1.2503    0.1494   -1.8517 O   0  0  0  0  0  0  0  0  0  0  0  0
    4.4548    0.3213    1.6678 O   0  0  0  0  0  0  0  0  0  0  0  0
   -2.2058   -0.6116    0.5253 C   0  0  1  0  0  0  0  0  0  0  0  0
   -1.0648   -0.0304   -0.3257 C   0  0  1  0  0  0  0  0  0  0  0  0
   -3.4980    0.1914    0.3272 C   0  0  0  0  0  0  0  0  0  0  0  0
   -2.1586    2.2584   -0.2590 C   0  0  1  0  0  0  0  0  0  0  0  0
   -0.8654    1.4628   -0.0561 C   0  0  0  0  0  0  0  0  0  0  0  0
   -3.2895    1.6796    0.5994 C   0  0  0  0  0  0  0  0  0  0  0  0
   -2.4449   -2.0895    0.2042 C   0  0  0  0  0  0  0  0  0  0  0  0
   -1.9397    3.7358    0.0617 C   0  0  0  0  0  0  0  0  0  0  0  0
   -3.4953   -2.6758    1.1426 C   0  0  0  0  0  0  0  0  0  0  0  0
   -2.8679   -2.2571   -1.2521 C   0  0  0  0  0  0  0  0  0  0  0  0
    1.2494   -0.3132   -0.7187 C   0  0  0  0  0  0  0  0  0  0  0  0
    3.5985   -0.1405   -0.5175 C   0  0  0  0  0  0  0  0  0  0  0  0
    4.7129   -0.4270    0.4808 C   0  0  1  0  0  0  0  0  0  0  0  0
    6.0716   -0.0217   -0.0703 C   0  0  0  0  0  0  0  0  0  0  0  0
   -1.9072   -0.5427    1.5814 H   0  0  0  0  0  0  0  0  0  0  0  0
   -1.2811   -0.1427   -1.3933 H   0  0  0  0  0  0  0  0  0  0  0  0
   -3.8782    0.1057   -0.6953 H   0  0  0  0  0  0  0  0  0  0  0  0
   -4.2891   -0.1573    0.9984 H   0  0  0  0  0  0  0  0  0  0  0  0
   -2.4505    2.1829   -1.3150 H   0  0  0  0  0  0  0  0  0  0  0  0
   -0.4936    1.5999    0.9689 H   0  0  0  0  0  0  0  0  0  0  0  0
   -0.0910    1.8869   -0.7047 H   0  0  0  0  0  0  0  0  0  0  0  0
   -3.0628    1.8235    1.6637 H   0  0  0  0  0  0  0  0  0  0  0  0
   -4.2235    2.2186    0.3993 H   0  0  0  0  0  0  0  0  0  0  0  0
   -1.5137   -2.6480    0.3614 H   0  0  0  0  0  0  0  0  0  0  0  0
   -1.6427    3.8774    1.1064 H   0  0  0  0  0  0  0  0  0  0  0  0
   -2.8560    4.3101   -0.1107 H   0  0  0  0  0  0  0  0  0  0  0  0
   -1.1549    4.1592   -0.5739 H   0  0  0  0  0  0  0  0  0  0  0  0
   -4.5064   -2.3195    0.9229 H   0  0  0  0  0  0  0  0  0  0  0  0
   -3.5183   -3.7670    1.0399 H   0  0  0  0  0  0  0  0  0  0  0  0
   -3.2651   -2.4522    2.1896 H   0  0  0  0  0  0  0  0  0  0  0  0
   -2.1182   -1.9085   -1.9653 H   0  0  0  0  0  0  0  0  0  0  0  0
   -2.9966   -3.3268   -1.4623 H   0  0  0  0  0  0  0  0  0  0  0  0
   -3.8291   -1.7934   -1.4877 H   0  0  0  0  0  0  0  0  0  0  0  0
    3.5637    0.9305   -0.7520 H   0  0  0  0  0  0  0  0  0  0  0  0
    3.7580   -0.7121   -1.4390 H   0  0  0  0  0  0  0  0  0  0  0  0
    4.7104   -1.4852    0.7616 H   0  0  0  0  0  0  0  0  0  0  0  0
    6.1003    1.0477   -0.3072 H   0  0  0  0  0  0  0  0  0  0  0  0
    6.3179   -0.5875   -0.9739 H   0  0  0  0  0  0  0  0  0  0  0  0
    6.8530   -0.1985    0.6766 H   0  0  0  0  0  0  0  0  0  0  0  0
    4.4573    1.2654    1.4346 H   0  0  0  0  0  0  0  0  0  0  0  0
  1  6  1  0  0  0  0
  1 15  1  0  0  0  0
  2 15  1  0  0  0  0
  2 16  1  0  0  0  0
  3 15  2  0  0  0  0
  4 17  1  0  0  0  0
  4 44  1  0  0  0  0
  5  6  1  0  0  0  0
  5  7  1  0  0  0  0
  5 11  1  0  0  0  0
  5 19  1  0  0  0  0
  6  9  1  0  0  0  0
  6 20  1  0  0  0  0
  7 10  1  0  0  0  0
  7 21  1  0  0  0  0
  7 22  1  0  0  0  0
  8  9  1  0  0  0  0
  8 10  1  0  0  0  0
  8 12  1  0  0  0  0
  8 23  1  0  0  0  0
  9 24  1  0  0  0  0
  9 25  1  0  0  0  0
 10 26  1  0  0  0  0
 10 27  1  0  0  0  0
 11 13  1  0  0  0  0
 11 14  1  0  0  0  0
 11 28  1  0  0  0  0
 12 29  1  0  0  0  0
 12 30  1  0  0  0  0
 12 31  1  0  0  0  0
 13 32  1  0  0  0  0
 13 33  1  0  0  0  0
 13 34  1  0  0  0  0
 14 35  1  0  0  0  0
 14 36  1  0  0  0  0
 14 37  1  0  0  0  0
 16 17  1  0  0  0  0
 16 38  1  0  0  0  0
 16 39  1  0  0  0  0
 17 18  1  0  0  0  0
 17 40  1  0  0  0  0
 18 41  1  0  0  0  0
 18 42  1  0  0  0  0
 18 43  1  0  0  0  0
M  END
> <PUBCHEM_COMPOUND_CID>
10199055

> <PUBCHEM_CONFORMER_RMSD>
0.8

> <PUBCHEM_CONFORMER_DIVERSEORDER>
1
130
208
463
93
172
382
100
287
156
433
259
331
34
75
173
128
215
12
324
434
403
295
16
451
459
154
171
440
179
51
477
221
115
311
485
358
396
178
39
70
44
293
341
442
371
478
30
232
415
63
470
225
353
40
404
240
313
304
72
438
211
231
59
203
26
170
342
326
373
449
325
297
425
149
163
254
268
101
102
466
374
350
445
427
344
312
430
236
36
207
48
67
220
281
9
86
278
83
290
397
151
195
298
365
89
248
482
135
446
461
194
469
279
235
439
6
7
267
214
296
24
186
31
233
283
21
302
360
224
464
136
193
322
428
118
452
25
152
77
343
309
476
204
79
150
142
55
319
42
107
336
299
202
146
164
483
340
410
479
60
330
261
432
271
465
145
176
362
366
377
247
20
140
98
206
109
97
123
314
334
386
448
134
402
27
189
35
457
243
338
255
168
381
376
37
81
349
363
52
94
472
69
337
357
226
144
78
400
177
74
138
106
420
73
114
310
160
481
191
10
184
294
174
270
242
121
394
361
411
383
103
110
266
262
212
351
399
112
120
49
375
276
29
90
57
323
333
139
217
234
198
473
291
153
422
435
436
408
61
239
429
122
380
385
387
401
99
127
407
108
8
210
38
162
316
388
359
390
241
58
222
125
197
409
14
288
285
129
487
250
43
50
443
335
406
264
157
28
161
205
238
354
219
484
132
475
54
124
32
155
486
141
5
2
416
56
384
471
370
258
413
286
148
320
105
131
68
263
437
227
346
201
454
41
321
272
95
307
4
53
71
395
116
280
468
391
216
364
356
372
253
317
431
66
474
147
188
456
392
87
65
18
166
389
260
92
159
137
458
352
284
257
419
82
182
318
200
426
315
453
249
329
192
104
441
76
13
421
306
183
175
450
455
133
379
187
244
256
199
33
245
277
378
303
85
229
251
80
252
265
84
274
308
339
190
111
480
292
167
367
3
230
488
467
62
185
119
47
412
424
45
158
209
237
22
218
11
169
369
88
46
301
418
423
19
117
355
269
64
23
460
96
347
273
289
328
398
228
17
348
275
462
405
143
393
300
91
15
113
414
165
332
368
196
213
181
444
223
327
180
126
447
282
345
417
305
246

> <PUBCHEM_MMFF94_PARTIAL_CHARGES>
9
1 -0.43
15 0.87
16 0.28
17 0.28
2 -0.43
3 -0.57
4 -0.68
44 0.4
6 0.28

> <PUBCHEM_EFFECTIVE_ROTOR_COUNT>
7.2

> <PUBCHEM_PHARMACOPHORE_FEATURES>
4
1 4 acceptor
1 4 donor
3 11 13 14 hydrophobe
6 5 6 7 8 9 10 rings

> <PUBCHEM_HEAVY_ATOM_COUNT>
18

> <PUBCHEM_ATOM_DEF_STEREO_COUNT>
0

> <PUBCHEM_ATOM_UDEF_STEREO_COUNT>
4

> <PUBCHEM_BOND_DEF_STEREO_COUNT>
0

> <PUBCHEM_BOND_UDEF_STEREO_COUNT>
0

> <PUBCHEM_ISOTOPIC_ATOM_COUNT>
0

> <PUBCHEM_COMPONENT_COUNT>
1

> <PUBCHEM_CACTVS_TAUTO_COUNT>
1

> <PUBCHEM_CONFORMER_ID>
009BA00F00000001

> <PUBCHEM_MMFF94_ENERGY>
37.8209

> <PUBCHEM_FEATURE_SELFOVERLAP>
20.297

> <PUBCHEM_SHAPE_FINGERPRINT>
10319926 262 18340756041446215930
10366900 7 18272639134913710704
10680689 15 18201719565755175646
10912923 1 17821446864198506242
11056379 131 18410023143180712790
11265709 11 18267020738329348279
11315181 36 18040152950988264702
11357001 24 18408328787193207819
11370993 144 17417548916201789482
11405975 8 18267300937885388514
12107183 9 17685205081093955362
12173636 292 18122345679559585533
12553582 1 18124332746253147343
12596602 18 17458350749485178408
13140716 1 18338527446876639329
13214271 11 18131068233808379252
13296909 8 18410008831937868516
13583140 156 17917422108594756158
13955234 65 16895968934591521633
14081887 123 18412537695939347720
14178342 30 18261398801910783590
14289901 80 18409168809934829250
14420673 8 18048879594469392298
14844126 61 18335701680276098691
15042514 8 18335714836198275619
15099037 37 18413672430541242030
16945 1 18191892075249845861
17844677 252 18412270536853512404
18927931 339 18413112779265408446
200 152 17895469331816229686
20510252 161 18198629817875009385
20645477 56 18272374113872451313
21033648 29 17560787819886468352
21065198 57 18340486652269877830
21065201 7 18339646646850758366
21339142 126 18413671326956296999
21426921 1 18410294700766362516
21650355 55 18409171047417475137
2306618 200 18131356301781429083
23402539 116 18334855043210650166
23419403 2 17902765768588100677
23557571 272 18272662224679220412
23559900 14 18270408166351093198
23598288 3 18336836398003715095
2748010 2 18269560618932114485
3086196 2 18408603686100241023
312423 11 18114755939934703948
5104073 3 18411412896277434402
573450 72 18187078438933872434
5924683 9 18341885303468646310
7364860 26 16898777087151035493
7615 1 17749685059609380196
81228 2 18340505395427958353

> <PUBCHEM_SHAPE_MULTIPOLES>
346.95
9.92
3.09
1.15
19.19
1.75
-0.1
-1.92
2.43
-5.55
0.19
0.26
-0.34
0.13

> <PUBCHEM_SHAPE_SELFOVERLAP>
679.931

> <PUBCHEM_SHAPE_VOLUME>
207.9

> <PUBCHEM_COORDINATE_TYPE>
2
5
10

$$$$
