10199004
  -OEChem-11232109043D

 42 42  0     1  0  0  0  0  0999 V2000
   -0.0917   -0.1124    0.0926 O   0  0  0  0  0  0  0  0  0  0  0  0
   -1.5686    0.6687   -1.4972 O   0  0  0  0  0  0  0  0  0  0  0  0
   -5.0959   -0.3851   -0.4142 O   0  0  0  0  0  0  0  0  0  0  0  0
   -3.4513   -1.4093    0.7727 O   0  0  0  0  0  0  0  0  0  0  0  0
    2.2088   -0.8307   -0.2030 C   0  0  1  0  0  0  0  0  0  0  0  0
    1.0197   -0.0586   -0.8004 C   0  0  2  0  0  0  0  0  0  0  0  0
    2.7474   -0.1340    1.0558 C   0  0  0  0  0  0  0  0  0  0  0  0
    1.9278    2.1042    0.1888 C   0  0  1  0  0  0  0  0  0  0  0  0
    1.3853    1.4046   -1.0677 C   0  0  0  0  0  0  0  0  0  0  0  0
    3.1091    1.3244    0.7798 C   0  0  0  0  0  0  0  0  0  0  0  0
    1.8398   -2.2811    0.1141 C   0  0  0  0  0  0  0  0  0  0  0  0
    2.3375    3.5412   -0.1305 C   0  0  0  0  0  0  0  0  0  0  0  0
    3.0550   -3.0382    0.6423 C   0  0  0  0  0  0  0  0  0  0  0  0
    1.2710   -2.9700   -1.1230 C   0  0  0  0  0  0  0  0  0  0  0  0
   -1.2254    0.5263   -0.3320 C   0  0  0  0  0  0  0  0  0  0  0  0
   -1.9861    1.0315    0.8752 C   0  0  0  0  0  0  0  0  0  0  0  0
   -3.4978    1.0050    0.6839 C   0  0  0  0  0  0  0  0  0  0  0  0
   -3.9847   -0.3864    0.3628 C   0  0  0  0  0  0  0  0  0  0  0  0
    3.0133   -0.8275   -0.9530 H   0  0  0  0  0  0  0  0  0  0  0  0
    0.7275   -0.5050   -1.7581 H   0  0  0  0  0  0  0  0  0  0  0  0
    2.0074   -0.1795    1.8647 H   0  0  0  0  0  0  0  0  0  0  0  0
    3.6556   -0.6222    1.4231 H   0  0  0  0  0  0  0  0  0  0  0  0
    1.1302    2.1462    0.9419 H   0  0  0  0  0  0  0  0  0  0  0  0
    2.1541    1.4316   -1.8519 H   0  0  0  0  0  0  0  0  0  0  0  0
    0.5387    1.9796   -1.4564 H   0  0  0  0  0  0  0  0  0  0  0  0
    3.9621    1.3598    0.0898 H   0  0  0  0  0  0  0  0  0  0  0  0
    3.4380    1.7973    1.7130 H   0  0  0  0  0  0  0  0  0  0  0  0
    1.0695   -2.3138    0.8957 H   0  0  0  0  0  0  0  0  0  0  0  0
    3.1354    3.5713   -0.8802 H   0  0  0  0  0  0  0  0  0  0  0  0
    2.6987    4.0507    0.7690 H   0  0  0  0  0  0  0  0  0  0  0  0
    1.4863    4.1104   -0.5185 H   0  0  0  0  0  0  0  0  0  0  0  0
    3.3331   -2.7173    1.6505 H   0  0  0  0  0  0  0  0  0  0  0  0
    3.9229   -2.9191   -0.0152 H   0  0  0  0  0  0  0  0  0  0  0  0
    2.8401   -4.1106    0.7131 H   0  0  0  0  0  0  0  0  0  0  0  0
    0.2775   -2.5926   -1.3831 H   0  0  0  0  0  0  0  0  0  0  0  0
    1.1517   -4.0449   -0.9451 H   0  0  0  0  0  0  0  0  0  0  0  0
    1.9296   -2.8506   -1.9900 H   0  0  0  0  0  0  0  0  0  0  0  0
   -1.6489    2.0533    1.0797 H   0  0  0  0  0  0  0  0  0  0  0  0
   -1.7249    0.4132    1.7427 H   0  0  0  0  0  0  0  0  0  0  0  0
   -4.0081    1.3507    1.5883 H   0  0  0  0  0  0  0  0  0  0  0  0
   -3.7697    1.6698   -0.1441 H   0  0  0  0  0  0  0  0  0  0  0  0
   -5.4084   -1.2945   -0.6079 H   0  0  0  0  0  0  0  0  0  0  0  0
  1  6  1  0  0  0  0
  1 15  1  0  0  0  0
  2 15  2  0  0  0  0
  3 18  1  0  0  0  0
  3 42  1  0  0  0  0
  4 18  2  0  0  0  0
  5  6  1  0  0  0  0
  5  7  1  0  0  0  0
  5 11  1  0  0  0  0
  5 19  1  0  0  0  0
  6  9  1  0  0  0  0
  6 20  1  0  0  0  0
  7 10  1  0  0  0  0
  7 21  1  0  0  0  0
  7 22  1  0  0  0  0
  8  9  1  0  0  0  0
  8 10  1  0  0  0  0
  8 12  1  0  0  0  0
  8 23  1  0  0  0  0
  9 24  1  0  0  0  0
  9 25  1  0  0  0  0
 10 26  1  0  0  0  0
 10 27  1  0  0  0  0
 11 13  1  0  0  0  0
 11 14  1  0  0  0  0
 11 28  1  0  0  0  0
 12 29  1  0  0  0  0
 12 30  1  0  0  0  0
 12 31  1  0  0  0  0
 13 32  1  0  0  0  0
 13 33  1  0  0  0  0
 13 34  1  0  0  0  0
 14 35  1  0  0  0  0
 14 36  1  0  0  0  0
 14 37  1  0  0  0  0
 15 16  1  0  0  0  0
 16 17  1  0  0  0  0
 16 38  1  0  0  0  0
 16 39  1  0  0  0  0
 17 18  1  0  0  0  0
 17 40  1  0  0  0  0
 17 41  1  0  0  0  0
M  END
> <PUBCHEM_COMPOUND_CID>
10199004

> <PUBCHEM_CONFORMER_RMSD>
1

> <PUBCHEM_CONFORMER_DIVERSEORDER>
2
26
5
75
50
13
20
65
106
31
14
89
47
111
6
48
113
32
120
21
87
83
49
91
41
28
63
93
82
121
112
8
24
97
69
30
102
23
119
12
52
68
73
57
86
74
58
125
1
34
99
80
117
37
122
95
115
17
18
27
94
98
60
92
104
118
42
59
81
70
10
33
55
22
77
39
107
116
72
7
108
19
66
29
90
88
100
114
76
61
44
43
15
109
38
40
3
84
45
105
16
11
78
103
46
79
25
124
110
9
62
53
123
51
4
54
35
96
36
64
67
85
71
101
56

> <PUBCHEM_MMFF94_PARTIAL_CHARGES>
10
1 -0.43
15 0.66
16 0.06
17 0.06
18 0.66
2 -0.57
3 -0.65
4 -0.57
42 0.5
6 0.28

> <PUBCHEM_EFFECTIVE_ROTOR_COUNT>
7.2

> <PUBCHEM_PHARMACOPHORE_FEATURES>
6
1 2 acceptor
1 3 acceptor
1 4 acceptor
3 11 13 14 hydrophobe
3 3 4 18 anion
6 5 6 7 8 9 10 rings

> <PUBCHEM_HEAVY_ATOM_COUNT>
18

> <PUBCHEM_ATOM_DEF_STEREO_COUNT>
0

> <PUBCHEM_ATOM_UDEF_STEREO_COUNT>
3

> <PUBCHEM_BOND_DEF_STEREO_COUNT>
0

> <PUBCHEM_BOND_UDEF_STEREO_COUNT>
0

> <PUBCHEM_ISOTOPIC_ATOM_COUNT>
0

> <PUBCHEM_COMPONENT_COUNT>
1

> <PUBCHEM_CACTVS_TAUTO_COUNT>
1

> <PUBCHEM_CONFORMER_ID>
009B9FDC00000002

> <PUBCHEM_MMFF94_ENERGY>
31.9187

> <PUBCHEM_FEATURE_SELFOVERLAP>
30.505

> <PUBCHEM_SHAPE_FINGERPRINT>
10366900 7 18334303084157589081
11370993 70 18337669827722422211
12553582 1 17979089192631841679
13533116 47 18410014325997650995
14251764 30 17771915926593830430
14289901 80 18343586261284446361
14787075 74 17410502399988450017
14955137 171 18410008854251605024
15422964 175 17981325582076664270
16945 1 18337940234674055316
20559304 39 18342182141490419280
20645477 70 18335416885589795767
21452121 199 18116998771904264406
21524375 3 18057329594177539492
2255824 54 18412834594228027236
22854114 111 18342739645414844225
23558518 356 17618497027763540452
23559900 14 18412260606393219585
2748010 2 17978768148696244716
3060560 45 18338242664838388484
31174 14 18335417950187803813
3286 77 18262237716286806199
33824 294 18410293652778667491
474 4 18339641268871436240
59755656 520 17905889528636842692
6333272 397 18268996564460175521
6443956 14 18192432974245044461
7097593 13 18198632042519998809
7364860 26 18412269427971182742
81228 2 17095805408957009853
8272917 22 18413113857402159753
9709674 26 18408045109051580083
9999458 23 18337957899916761636

> <PUBCHEM_SHAPE_MULTIPOLES>
346.95
7.15
3.5
1.12
10.32
0.24
-0.15
1.22
1.61
-4.5
-0.2
-0.1
0.06
-0.11

> <PUBCHEM_SHAPE_SELFOVERLAP>
687.292

> <PUBCHEM_SHAPE_VOLUME>
204.9

> <PUBCHEM_COORDINATE_TYPE>
2
5
10

$$$$
