102120
  -OEChem-11232109433D

 45 47  0     1  0  0  0  0  0999 V2000
   -3.1345    0.4420    0.3326 O   0  0  0  0  0  0  0  0  0  0  0  0
   -5.0869   -0.0986   -0.7780 O   0  0  0  0  0  0  0  0  0  0  0  0
    1.8253    0.6304    0.1199 C   0  0  1  0  0  0  0  0  0  0  0  0
    1.9110   -0.8203   -0.4730 C   0  0  2  0  0  0  0  0  0  0  0  0
    0.6180   -1.5670   -0.0183 C   0  0  0  0  0  0  0  0  0  0  0  0
   -0.2702   -0.3992    0.5310 C   0  0  1  0  0  0  0  0  0  0  0  0
    0.7784    0.4846    1.2379 C   0  0  0  0  0  0  0  0  0  0  0  0
    3.2500    0.9488    0.6363 C   0  0  1  0  0  0  0  0  0  0  0  0
    3.2742   -1.3489   -0.0281 C   0  0  0  0  0  0  0  0  0  0  0  0
    1.2460    1.6104   -0.9365 C   0  0  0  0  0  0  0  0  0  0  0  0
    4.1401   -0.0968   -0.0454 C   0  0  0  0  0  0  0  0  0  0  0  0
   -0.9267    0.4294   -0.5682 C   0  0  0  0  0  0  0  0  0  0  0  0
    0.8479   -2.6105    1.0961 C   0  0  0  0  0  0  0  0  0  0  0  0
   -0.0079   -2.3262   -1.2026 C   0  0  0  0  0  0  0  0  0  0  0  0
   -0.2091    1.3488   -1.2415 C   0  0  0  0  0  0  0  0  0  0  0  0
    3.7658    2.3628    0.4126 C   0  0  0  0  0  0  0  0  0  0  0  0
   -2.3806    0.1879   -0.8386 C   0  0  0  0  0  0  0  0  0  0  0  0
   -4.4883    0.2594    0.2273 C   0  0  0  0  0  0  0  0  0  0  0  0
   -5.1524    0.5628    1.5362 C   0  0  0  0  0  0  0  0  0  0  0  0
    1.9372   -0.7544   -1.5702 H   0  0  0  0  0  0  0  0  0  0  0  0
   -1.0150   -0.7491    1.2539 H   0  0  0  0  0  0  0  0  0  0  0  0
    0.3751    1.4495    1.5681 H   0  0  0  0  0  0  0  0  0  0  0  0
    1.1855   -0.0128    2.1245 H   0  0  0  0  0  0  0  0  0  0  0  0
    3.2880    0.7590    1.7179 H   0  0  0  0  0  0  0  0  0  0  0  0
    3.6535   -2.1230   -0.7016 H   0  0  0  0  0  0  0  0  0  0  0  0
    3.2642   -1.7556    0.9873 H   0  0  0  0  0  0  0  0  0  0  0  0
    1.8251    1.5551   -1.8657 H   0  0  0  0  0  0  0  0  0  0  0  0
    1.3104    2.6425   -0.5730 H   0  0  0  0  0  0  0  0  0  0  0  0
    5.0833   -0.2459    0.4892 H   0  0  0  0  0  0  0  0  0  0  0  0
    4.3725    0.1928   -1.0775 H   0  0  0  0  0  0  0  0  0  0  0  0
    1.2964   -2.1814    1.9964 H   0  0  0  0  0  0  0  0  0  0  0  0
    1.5004   -3.4211    0.7520 H   0  0  0  0  0  0  0  0  0  0  0  0
   -0.1026   -3.0651    1.3998 H   0  0  0  0  0  0  0  0  0  0  0  0
   -0.9704   -2.7683   -0.9226 H   0  0  0  0  0  0  0  0  0  0  0  0
    0.6494   -3.1395   -1.5318 H   0  0  0  0  0  0  0  0  0  0  0  0
   -0.1731   -1.6825   -2.0725 H   0  0  0  0  0  0  0  0  0  0  0  0
   -0.6712    1.9502   -2.0186 H   0  0  0  0  0  0  0  0  0  0  0  0
    3.8223    2.6141   -0.6514 H   0  0  0  0  0  0  0  0  0  0  0  0
    3.1218    3.0951    0.9100 H   0  0  0  0  0  0  0  0  0  0  0  0
    4.7734    2.4710    0.8286 H   0  0  0  0  0  0  0  0  0  0  0  0
   -2.5279   -0.8521   -1.1504 H   0  0  0  0  0  0  0  0  0  0  0  0
   -2.7396    0.8378   -1.6462 H   0  0  0  0  0  0  0  0  0  0  0  0
   -4.9697    1.6046    1.8110 H   0  0  0  0  0  0  0  0  0  0  0  0
   -4.7737   -0.1115    2.3082 H   0  0  0  0  0  0  0  0  0  0  0  0
   -6.2313    0.4116    1.4396 H   0  0  0  0  0  0  0  0  0  0  0  0
  1 17  1  0  0  0  0
  1 18  1  0  0  0  0
  2 18  2  0  0  0  0
  3  4  1  0  0  0  0
  3  7  1  0  0  0  0
  3  8  1  0  0  0  0
  3 10  1  0  0  0  0
  4  5  1  0  0  0  0
  4  9  1  0  0  0  0
  4 20  1  0  0  0  0
  5  6  1  0  0  0  0
  5 13  1  0  0  0  0
  5 14  1  0  0  0  0
  6  7  1  0  0  0  0
  6 12  1  0  0  0  0
  6 21  1  0  0  0  0
  7 22  1  0  0  0  0
  7 23  1  0  0  0  0
  8 11  1  0  0  0  0
  8 16  1  0  0  0  0
  8 24  1  0  0  0  0
  9 11  1  0  0  0  0
  9 25  1  0  0  0  0
  9 26  1  0  0  0  0
 10 15  1  0  0  0  0
 10 27  1  0  0  0  0
 10 28  1  0  0  0  0
 11 29  1  0  0  0  0
 11 30  1  0  0  0  0
 12 15  2  0  0  0  0
 12 17  1  0  0  0  0
 13 31  1  0  0  0  0
 13 32  1  0  0  0  0
 13 33  1  0  0  0  0
 14 34  1  0  0  0  0
 14 35  1  0  0  0  0
 14 36  1  0  0  0  0
 15 37  1  0  0  0  0
 16 38  1  0  0  0  0
 16 39  1  0  0  0  0
 16 40  1  0  0  0  0
 17 41  1  0  0  0  0
 17 42  1  0  0  0  0
 18 19  1  0  0  0  0
 19 43  1  0  0  0  0
 19 44  1  0  0  0  0
 19 45  1  0  0  0  0
M  END
> <PUBCHEM_COMPOUND_CID>
102120

> <PUBCHEM_CONFORMER_RMSD>
0.6

> <PUBCHEM_CONFORMER_DIVERSEORDER>
1
12
19
11
16
14
18
10
7
4
5
15
6
8
3
13
17
2
9

> <PUBCHEM_MMFF94_PARTIAL_CHARGES>
10
1 -0.43
10 0.14
12 -0.28
15 -0.29
17 0.42
18 0.66
19 0.06
2 -0.57
37 0.15
6 0.14

> <PUBCHEM_EFFECTIVE_ROTOR_COUNT>
4.2

> <PUBCHEM_PHARMACOPHORE_FEATURES>
4
1 2 acceptor
3 5 13 14 hydrophobe
5 3 4 8 9 11 rings
8 3 4 5 6 7 10 12 15 rings

> <PUBCHEM_HEAVY_ATOM_COUNT>
19

> <PUBCHEM_ATOM_DEF_STEREO_COUNT>
4

> <PUBCHEM_ATOM_UDEF_STEREO_COUNT>
0

> <PUBCHEM_BOND_DEF_STEREO_COUNT>
0

> <PUBCHEM_BOND_UDEF_STEREO_COUNT>
0

> <PUBCHEM_ISOTOPIC_ATOM_COUNT>
0

> <PUBCHEM_COMPONENT_COUNT>
1

> <PUBCHEM_CACTVS_TAUTO_COUNT>
1

> <PUBCHEM_CONFORMER_ID>
00018EE800000001

> <PUBCHEM_MMFF94_ENERGY>
64.2722

> <PUBCHEM_FEATURE_SELFOVERLAP>
20.349

> <PUBCHEM_SHAPE_FINGERPRINT>
10064457 181 18201719587124614495
10382601 240 18335980891678085947
10493431 412 18266174114117471856
10863032 1 17988074625271602774
10948715 1 18201154476870831820
11132069 177 17967811691086540065
11471102 20 18409444773835418373
11578080 2 16914800703746859946
12035758 1 18334849529247901176
12236239 1 17346598560537757032
12390115 104 17835811064182123312
12592029 89 18334290933985278922
12596602 18 18131080342281250547
13140716 1 18336538434758175290
13464513 79 18187369830789648143
13583140 156 16010124640656480916
14252887 29 18040720242684253929
14787075 74 18272085058510773401
14863182 85 15502660364693729889
15375358 24 17894345567172329601
15788980 27 12540695916751116097
16945 1 18342161247054552254
18186145 218 18273208699327965884
19784866 9 18059580139881360499
20233049 118 13973963169071641803
20645477 70 18267571430371987999
20691752 17 18041549338855137654
21501502 16 18197200663449271950
22182313 1 18115570561976213748
22854114 59 18408321086158720401
23184049 59 18335699459751151564
23419403 2 15074883314250654868
23557571 272 16588579787120264215
23558518 356 17690544708536823360
23559900 14 16805883966198349818
25 1 18201152247809380352
2748010 2 18262524809534544030
3060560 45 18408881819756146790
3286 77 18336827468745198108
4047638 21 18272933838685150512
42630746 31 18411415115846948351
465052 167 17168150039325970928
474 4 18198900490650456344
5104073 3 18339076098388028251
58807428 26 18189316009631682642
59554788 170 18410855430649414876
633830 44 17917715707757754469
69090 78 18341324582645085926
7495541 125 15791744035036195133
81228 2 17686318168596609570
8272917 22 17845664642265100143
9999458 23 18260830397554319542

> <PUBCHEM_SHAPE_MULTIPOLES>
379.27
8.28
2.21
1.24
10.83
0.86
0.07
-2.76
1.99
-1.97
-0.02
0.64
0.01
-0.06

> <PUBCHEM_SHAPE_SELFOVERLAP>
801.644

> <PUBCHEM_SHAPE_VOLUME>
217.7

> <PUBCHEM_COORDINATE_TYPE>
2
5
10

$$$$
