10219851
  -OEChem-11232109413D

 38 38  0     1  0  0  0  0  0999 V2000
    1.4790   -0.3501    0.0053 O   0  0  0  0  0  0  0  0  0  0  0  0
    4.0035    0.1294    1.1105 O   0  0  0  0  0  0  0  0  0  0  0  0
   -0.8726   -0.7359    0.4155 C   0  0  1  0  0  0  0  0  0  0  0  0
    0.1713    0.0857   -0.3585 C   0  0  1  0  0  0  0  0  0  0  0  0
   -2.2882   -0.2058    0.1530 C   0  0  0  0  0  0  0  0  0  0  0  0
   -1.3670    2.1037   -0.3240 C   0  0  1  0  0  0  0  0  0  0  0  0
    0.0478    1.5810   -0.0566 C   0  0  0  0  0  0  0  0  0  0  0  0
   -2.4019    1.2862    0.4581 C   0  0  0  0  0  0  0  0  0  0  0  0
   -0.7883   -2.2228    0.0601 C   0  0  0  0  0  0  0  0  0  0  0  0
   -1.4710    3.5860    0.0298 C   0  0  0  0  0  0  0  0  0  0  0  0
   -1.7473   -3.0334    0.9267 C   0  0  0  0  0  0  0  0  0  0  0  0
   -1.0879   -2.4349   -1.4208 C   0  0  0  0  0  0  0  0  0  0  0  0
    2.4783    0.3488   -0.7216 C   0  0  0  0  0  0  0  0  0  0  0  0
    3.8444   -0.1377   -0.2775 C   0  0  0  0  0  0  0  0  0  0  0  0
   -0.6526   -0.6351    1.4881 H   0  0  0  0  0  0  0  0  0  0  0  0
    0.0411   -0.0385   -1.4388 H   0  0  0  0  0  0  0  0  0  0  0  0
   -3.0275   -0.7245    0.7715 H   0  0  0  0  0  0  0  0  0  0  0  0
   -2.5865   -0.3403   -0.8912 H   0  0  0  0  0  0  0  0  0  0  0  0
   -1.5808    1.9975   -1.3962 H   0  0  0  0  0  0  0  0  0  0  0  0
    0.7099    2.1781   -0.6908 H   0  0  0  0  0  0  0  0  0  0  0  0
    0.3471    1.7798    0.9810 H   0  0  0  0  0  0  0  0  0  0  0  0
   -3.4136    1.6302    0.2110 H   0  0  0  0  0  0  0  0  0  0  0  0
   -2.2676    1.4456    1.5358 H   0  0  0  0  0  0  0  0  0  0  0  0
    0.2271   -2.5854    0.2639 H   0  0  0  0  0  0  0  0  0  0  0  0
   -0.7567    4.1765   -0.5537 H   0  0  0  0  0  0  0  0  0  0  0  0
   -2.4747    3.9669   -0.1862 H   0  0  0  0  0  0  0  0  0  0  0  0
   -1.2650    3.7579    1.0918 H   0  0  0  0  0  0  0  0  0  0  0  0
   -1.5424   -4.1036    0.8074 H   0  0  0  0  0  0  0  0  0  0  0  0
   -1.6251   -2.7949    1.9884 H   0  0  0  0  0  0  0  0  0  0  0  0
   -2.7961   -2.8833    0.6528 H   0  0  0  0  0  0  0  0  0  0  0  0
   -2.1091   -2.1696   -1.7059 H   0  0  0  0  0  0  0  0  0  0  0  0
   -0.9841   -3.5026   -1.6534 H   0  0  0  0  0  0  0  0  0  0  0  0
   -0.3871   -1.9231   -2.0835 H   0  0  0  0  0  0  0  0  0  0  0  0
    2.3514    0.1854   -1.7971 H   0  0  0  0  0  0  0  0  0  0  0  0
    2.4667    1.4175   -0.4997 H   0  0  0  0  0  0  0  0  0  0  0  0
    4.6390    0.3723   -0.8300 H   0  0  0  0  0  0  0  0  0  0  0  0
    3.9342   -1.2188   -0.4227 H   0  0  0  0  0  0  0  0  0  0  0  0
    4.8849   -0.1943    1.3636 H   0  0  0  0  0  0  0  0  0  0  0  0
  1  4  1  0  0  0  0
  1 13  1  0  0  0  0
  2 14  1  0  0  0  0
  2 38  1  0  0  0  0
  3  4  1  0  0  0  0
  3  5  1  0  0  0  0
  3  9  1  0  0  0  0
  3 15  1  0  0  0  0
  4  7  1  0  0  0  0
  4 16  1  0  0  0  0
  5  8  1  0  0  0  0
  5 17  1  0  0  0  0
  5 18  1  0  0  0  0
  6  7  1  0  0  0  0
  6  8  1  0  0  0  0
  6 10  1  0  0  0  0
  6 19  1  0  0  0  0
  7 20  1  0  0  0  0
  7 21  1  0  0  0  0
  8 22  1  0  0  0  0
  8 23  1  0  0  0  0
  9 11  1  0  0  0  0
  9 12  1  0  0  0  0
  9 24  1  0  0  0  0
 10 25  1  0  0  0  0
 10 26  1  0  0  0  0
 10 27  1  0  0  0  0
 11 28  1  0  0  0  0
 11 29  1  0  0  0  0
 11 30  1  0  0  0  0
 12 31  1  0  0  0  0
 12 32  1  0  0  0  0
 12 33  1  0  0  0  0
 13 14  1  0  0  0  0
 13 34  1  0  0  0  0
 13 35  1  0  0  0  0
 14 36  1  0  0  0  0
 14 37  1  0  0  0  0
M  END
> <PUBCHEM_COMPOUND_CID>
10219851

> <PUBCHEM_CONFORMER_RMSD>
0.6

> <PUBCHEM_CONFORMER_DIVERSEORDER>
1
11
10
12
8
18
13
4
5
15
14
17
6
9
19
2
7
3
16

> <PUBCHEM_MMFF94_PARTIAL_CHARGES>
6
1 -0.56
13 0.28
14 0.28
2 -0.68
38 0.4
4 0.28

> <PUBCHEM_EFFECTIVE_ROTOR_COUNT>
5.2

> <PUBCHEM_PHARMACOPHORE_FEATURES>
5
1 1 acceptor
1 2 acceptor
1 2 donor
3 9 11 12 hydrophobe
6 3 4 5 6 7 8 rings

> <PUBCHEM_HEAVY_ATOM_COUNT>
14

> <PUBCHEM_ATOM_DEF_STEREO_COUNT>
3

> <PUBCHEM_ATOM_UDEF_STEREO_COUNT>
0

> <PUBCHEM_BOND_DEF_STEREO_COUNT>
0

> <PUBCHEM_BOND_UDEF_STEREO_COUNT>
0

> <PUBCHEM_ISOTOPIC_ATOM_COUNT>
0

> <PUBCHEM_COMPONENT_COUNT>
1

> <PUBCHEM_CACTVS_TAUTO_COUNT>
1

> <PUBCHEM_CONFORMER_ID>
009BF14B00000001

> <PUBCHEM_MMFF94_ENERGY>
31.8962

> <PUBCHEM_FEATURE_SELFOVERLAP>
25.375

> <PUBCHEM_SHAPE_FINGERPRINT>
1 1 17761212107307044596
10989021 7 17907865350424534218
11357001 24 18335423495027701314
11680986 33 17979916335008973193
12500047 106 18340483345192428756
12553582 1 17907589373391630262
13140716 1 18266182918525804104
13380535 76 18046910368584278445
13538477 17 18186805807210291582
14817 1 12877723537470436399
15042514 8 18336273404810515723
15669948 3 18408890663478502366
15906896 17 18411133606521354407
16945 1 18335435550953142285
19021347 4 18264776445511406219
193761 8 17834124413207393153
20510252 161 18270402685276757488
20524608 308 18340769252195645774
20671657 1 17258782521042968061
20711985 344 18339062887174068194
20871998 184 18271254914051488518
21296965 67 18050290563364281227
21524375 3 18124029031534266349
21650355 55 18264763427745120170
21731228 192 18195249910219258624
220403 375 18122907529710806215
2334 1 17978234090391653020
23402539 116 18343293791122886143
23419403 2 17127579293396581097
23552423 10 17115799267371460639
23557571 272 18199479916662511692
23559900 14 18342463613179374236
23598294 1 18265062495045187498
23728640 28 18336819810671342818
257057 1 17979346787495142319
2748010 2 18049176466122182429
305870 269 17903919959270298536
3071541 12 17186444542765393309
3071541 236 18334851697504693634
3091708 16 9058132451708005449
43471831 8 18118687608557762867
5706482 22 18337383821169949337
6333449 129 18341611495082093668
6338986 31 17839170054481323454
7364860 26 17260747348078989844
81228 2 18411418448799618384

> <PUBCHEM_SHAPE_MULTIPOLES>
276.37
4.66
3.76
0.97
7.26
0.55
-0.1
0.34
0.9
-3.79
-0.02
0.09
-0.51
0.08

> <PUBCHEM_SHAPE_SELFOVERLAP>
533.944

> <PUBCHEM_SHAPE_VOLUME>
168.1

> <PUBCHEM_COORDINATE_TYPE>
2
5
10

$$$$
