102579
  -OEChem-11232108473D

 42 44  0     1  0  0  0  0  0999 V2000
   -3.4236   -0.3475   -0.5911 O   0  0  0  0  0  0  0  0  0  0  0  0
    0.9756   -0.5754   -0.4934 C   0  0  1  0  0  0  0  0  0  0  0  0
    1.1320    0.7482    0.3572 C   0  0  1  0  0  0  0  0  0  0  0  0
    2.4202   -0.9300   -0.0435 C   0  0  0  0  0  0  0  0  0  0  0  0
    2.6700    0.5615    0.1575 C   0  0  0  0  0  0  0  0  0  0  0  0
    0.6284    2.1011   -0.1787 C   0  0  1  0  0  0  0  0  0  0  0  0
    0.0366   -1.7109   -0.0877 C   0  0  0  0  0  0  0  0  0  0  0  0
   -2.3320   -0.9313    0.1361 C   0  0  2  0  0  0  0  0  0  0  0  0
   -2.5882    0.5512    0.1540 C   0  0  1  0  0  0  0  0  0  0  0  0
   -1.3359   -1.6103   -0.7418 C   0  0  0  0  0  0  0  0  0  0  0  0
   -0.8543    2.3454    0.1508 C   0  0  0  0  0  0  0  0  0  0  0  0
   -1.8420    1.5323   -0.6870 C   0  0  0  0  0  0  0  0  0  0  0  0
    3.2653   -1.5368   -1.1444 C   0  0  0  0  0  0  0  0  0  0  0  0
    2.5950   -1.7249    1.2283 C   0  0  0  0  0  0  0  0  0  0  0  0
    1.4409    3.2397    0.4646 C   0  0  0  0  0  0  0  0  0  0  0  0
   -2.7880   -1.7123    1.3192 C   0  0  0  0  0  0  0  0  0  0  0  0
    0.9150   -0.3673   -1.5721 H   0  0  0  0  0  0  0  0  0  0  0  0
    0.8382    0.6105    1.4083 H   0  0  0  0  0  0  0  0  0  0  0  0
    3.0734    1.0676   -0.7296 H   0  0  0  0  0  0  0  0  0  0  0  0
    3.2891    0.8417    1.0159 H   0  0  0  0  0  0  0  0  0  0  0  0
    0.7774    2.1550   -1.2644 H   0  0  0  0  0  0  0  0  0  0  0  0
   -0.0449   -1.7920    1.0001 H   0  0  0  0  0  0  0  0  0  0  0  0
    0.4716   -2.6542   -0.4446 H   0  0  0  0  0  0  0  0  0  0  0  0
   -3.0359    1.0049    1.0299 H   0  0  0  0  0  0  0  0  0  0  0  0
   -1.2685   -1.1367   -1.7274 H   0  0  0  0  0  0  0  0  0  0  0  0
   -1.7019   -2.6274   -0.9361 H   0  0  0  0  0  0  0  0  0  0  0  0
   -1.0747    3.4036   -0.0460 H   0  0  0  0  0  0  0  0  0  0  0  0
   -1.0256    2.1963    1.2246 H   0  0  0  0  0  0  0  0  0  0  0  0
   -2.5846    2.2225   -1.1079 H   0  0  0  0  0  0  0  0  0  0  0  0
   -1.3494    1.0674   -1.5457 H   0  0  0  0  0  0  0  0  0  0  0  0
    4.3242   -1.5652   -0.8636 H   0  0  0  0  0  0  0  0  0  0  0  0
    3.1928   -0.9664   -2.0775 H   0  0  0  0  0  0  0  0  0  0  0  0
    2.9502   -2.5626   -1.3657 H   0  0  0  0  0  0  0  0  0  0  0  0
    2.3124   -2.7753    1.0969 H   0  0  0  0  0  0  0  0  0  0  0  0
    2.0077   -1.3258    2.0625 H   0  0  0  0  0  0  0  0  0  0  0  0
    3.6426   -1.7170    1.5529 H   0  0  0  0  0  0  0  0  0  0  0  0
    2.4979    3.1898    0.1861 H   0  0  0  0  0  0  0  0  0  0  0  0
    1.0721    4.2183    0.1387 H   0  0  0  0  0  0  0  0  0  0  0  0
    1.3825    3.1986    1.5580 H   0  0  0  0  0  0  0  0  0  0  0  0
   -3.0209   -2.7466    1.0449 H   0  0  0  0  0  0  0  0  0  0  0  0
   -2.0196   -1.7292    2.0981 H   0  0  0  0  0  0  0  0  0  0  0  0
   -3.6929   -1.2860    1.7679 H   0  0  0  0  0  0  0  0  0  0  0  0
  1  8  1  0  0  0  0
  1  9  1  0  0  0  0
  2  3  1  0  0  0  0
  2  4  1  0  0  0  0
  2  7  1  0  0  0  0
  2 17  1  0  0  0  0
  3  5  1  0  0  0  0
  3  6  1  0  0  0  0
  3 18  1  0  0  0  0
  4  5  1  0  0  0  0
  4 13  1  0  0  0  0
  4 14  1  0  0  0  0
  5 19  1  0  0  0  0
  5 20  1  0  0  0  0
  6 11  1  0  0  0  0
  6 15  1  0  0  0  0
  6 21  1  0  0  0  0
  7 10  1  0  0  0  0
  7 22  1  0  0  0  0
  7 23  1  0  0  0  0
  8  9  1  0  0  0  0
  8 10  1  0  0  0  0
  8 16  1  0  0  0  0
  9 12  1  0  0  0  0
  9 24  1  0  0  0  0
 10 25  1  0  0  0  0
 10 26  1  0  0  0  0
 11 12  1  0  0  0  0
 11 27  1  0  0  0  0
 11 28  1  0  0  0  0
 12 29  1  0  0  0  0
 12 30  1  0  0  0  0
 13 31  1  0  0  0  0
 13 32  1  0  0  0  0
 13 33  1  0  0  0  0
 14 34  1  0  0  0  0
 14 35  1  0  0  0  0
 14 36  1  0  0  0  0
 15 37  1  0  0  0  0
 15 38  1  0  0  0  0
 15 39  1  0  0  0  0
 16 40  1  0  0  0  0
 16 41  1  0  0  0  0
 16 42  1  0  0  0  0
M  END
> <PUBCHEM_COMPOUND_CID>
102579

> <PUBCHEM_CONFORMER_RMSD>
0.6

> <PUBCHEM_CONFORMER_DIVERSEORDER>
12
63
29
30
45
49
5
55
15
24
25
38
64
28
18
52
21
44
27
33
42
57
16
34
31
39
53
32
17
47
13
37
23
11
22
8
26
62
59
40
41
54
50
36
7
43
9
56
4
6
35
58
51
3
19
1
2
61
20
46
48
60
10
14

> <PUBCHEM_MMFF94_PARTIAL_CHARGES>
7
1 -0.3
10 0.09
12 0.09
16 0.09
24 0.1
8 -0.04
9 -0.05

> <PUBCHEM_EFFECTIVE_ROTOR_COUNT>
1.6

> <PUBCHEM_PHARMACOPHORE_FEATURES>
3
1 1 acceptor
3 4 13 14 hydrophobe
4 2 3 4 5 rings

> <PUBCHEM_HEAVY_ATOM_COUNT>
16

> <PUBCHEM_ATOM_DEF_STEREO_COUNT>
0

> <PUBCHEM_ATOM_UDEF_STEREO_COUNT>
5

> <PUBCHEM_BOND_DEF_STEREO_COUNT>
0

> <PUBCHEM_BOND_UDEF_STEREO_COUNT>
0

> <PUBCHEM_ISOTOPIC_ATOM_COUNT>
0

> <PUBCHEM_COMPONENT_COUNT>
1

> <PUBCHEM_CACTVS_TAUTO_COUNT>
1

> <PUBCHEM_CONFORMER_ID>
000190B30000000C

> <PUBCHEM_MMFF94_ENERGY>
44.2792

> <PUBCHEM_FEATURE_SELFOVERLAP>
15.223

> <PUBCHEM_SHAPE_FINGERPRINT>
10382601 240 18121226642767616152
104564 63 18124886654888212978
10759866 29 17751935618246205118
10967382 1 18267581501558658604
11067466 332 17609794336777732085
11086676 242 18409173190242230736
12382932 28 18125157139101921433
12553582 1 18265900163606608545
12696612 119 18339926046656411263
13140716 1 18267583507545769528
13538477 17 17972038033643309726
1420 336 18339640031983703713
14250199 8 18270397321041446055
14251711 518 18268423723181175766
15848700 24 18200584813488024703
16945 1 18269273641500826476
17990270 104 18411978087312402209
19591789 44 17834680778970798468
19868273 325 18337958882962858828
20559304 39 18337955713303387518
20645476 183 17606697819860068485
20645477 70 18268141140693506319
21130352 189 18411979169607088231
21524375 3 17404297898701153288
21731228 192 17403455668241152368
22721475 48 18411419492519103149
22802520 49 17842286865114056294
232386 152 18117265978862565394
2334 1 18411416194105526092
23559900 14 17982731871304143542
2748010 2 18341041930915972868
2897 32 17762336216376334285
31174 14 18120953942767839163
4175511 71 18342185457373756070
5939293 188 18413666915676691720
7364860 26 18198907096483847372
81228 2 18052822442516958104
8809292 202 18193561056021653694

> <PUBCHEM_SHAPE_MULTIPOLES>
323.4
5.02
3.15
1.03
0.59
2.25
-0.11
-2.29
-0.02
-0.64
-0.39
-0.1
-0.44
0.55

> <PUBCHEM_SHAPE_SELFOVERLAP>
662.346

> <PUBCHEM_SHAPE_VOLUME>
190.8

> <PUBCHEM_COORDINATE_TYPE>
2
5
10

$$$$
