102550
  -OEChem-11232108533D

 19 19  0     1  0  0  0  0  0999 V2000
   -0.2014    0.6959   -0.4343 O   0  0  0  0  0  0  0  0  0  0  0  0
   -2.4426    1.1560   -0.2674 O   0  0  0  0  0  0  0  0  0  0  0  0
    0.6527   -0.4216   -0.1284 C   0  0  1  0  0  0  0  0  0  0  0  0
   -0.0984   -1.1627    0.9670 C   0  0  0  0  0  0  0  0  0  0  0  0
   -1.5495   -0.9113    0.6225 C   0  0  0  0  0  0  0  0  0  0  0  0
    0.8342   -1.2596   -1.3957 C   0  0  0  0  0  0  0  0  0  0  0  0
   -1.4882    0.4245   -0.0552 C   0  0  0  0  0  0  0  0  0  0  0  0
    1.9757    0.0929    0.3436 C   0  0  0  0  0  0  0  0  0  0  0  0
    2.3175    1.3858    0.3480 C   0  0  0  0  0  0  0  0  0  0  0  0
    0.1098   -0.7244    1.9525 H   0  0  0  0  0  0  0  0  0  0  0  0
    0.1445   -2.2285    1.0252 H   0  0  0  0  0  0  0  0  0  0  0  0
   -2.1712   -0.8680    1.5197 H   0  0  0  0  0  0  0  0  0  0  0  0
   -1.9382   -1.6541   -0.0795 H   0  0  0  0  0  0  0  0  0  0  0  0
    1.4529   -2.1443   -1.2101 H   0  0  0  0  0  0  0  0  0  0  0  0
   -0.1286   -1.5931   -1.7987 H   0  0  0  0  0  0  0  0  0  0  0  0
    1.3068   -0.6693   -2.1901 H   0  0  0  0  0  0  0  0  0  0  0  0
    2.7013   -0.6354    0.6980 H   0  0  0  0  0  0  0  0  0  0  0  0
    3.2994    1.6814    0.7040 H   0  0  0  0  0  0  0  0  0  0  0  0
    1.6605    2.1769    0.0069 H   0  0  0  0  0  0  0  0  0  0  0  0
  1  3  1  0  0  0  0
  1  7  1  0  0  0  0
  2  7  2  0  0  0  0
  3  4  1  0  0  0  0
  3  6  1  0  0  0  0
  3  8  1  0  0  0  0
  4  5  1  0  0  0  0
  4 10  1  0  0  0  0
  4 11  1  0  0  0  0
  5  7  1  0  0  0  0
  5 12  1  0  0  0  0
  5 13  1  0  0  0  0
  6 14  1  0  0  0  0
  6 15  1  0  0  0  0
  6 16  1  0  0  0  0
  8  9  2  0  0  0  0
  8 17  1  0  0  0  0
  9 18  1  0  0  0  0
  9 19  1  0  0  0  0
M  END
> <PUBCHEM_COMPOUND_CID>
102550

> <PUBCHEM_CONFORMER_RMSD>
0.4

> <PUBCHEM_CONFORMER_DIVERSEORDER>
1
4
3
2

> <PUBCHEM_MMFF94_PARTIAL_CHARGES>
10
1 -0.43
17 0.15
18 0.15
19 0.15
2 -0.57
3 0.42
5 0.06
7 0.66
8 -0.29
9 -0.3

> <PUBCHEM_EFFECTIVE_ROTOR_COUNT>
1.8

> <PUBCHEM_PHARMACOPHORE_FEATURES>
3
1 2 acceptor
1 9 hydrophobe
5 1 3 4 5 7 rings

> <PUBCHEM_HEAVY_ATOM_COUNT>
9

> <PUBCHEM_ATOM_DEF_STEREO_COUNT>
0

> <PUBCHEM_ATOM_UDEF_STEREO_COUNT>
1

> <PUBCHEM_BOND_DEF_STEREO_COUNT>
0

> <PUBCHEM_BOND_UDEF_STEREO_COUNT>
0

> <PUBCHEM_ISOTOPIC_ATOM_COUNT>
0

> <PUBCHEM_COMPONENT_COUNT>
1

> <PUBCHEM_CACTVS_TAUTO_COUNT>
2

> <PUBCHEM_CONFORMER_ID>
0001909600000001

> <PUBCHEM_MMFF94_ENERGY>
12.6488

> <PUBCHEM_FEATURE_SELFOVERLAP>
15.223

> <PUBCHEM_SHAPE_FINGERPRINT>
12423570 1 15025904795570444278
13024252 1 17461979257841226746
137420 1 15890197248144949390
13839132 238 18335710415985896476
14128692 85 9871467677089572792
16945 1 18118685662768727170
21040471 1 17822865164735217803
23211744 41 18411139168493284219
24536 1 17917157087030991171
29004967 10 17773888497175798038
369184 2 17605538041435876240
5084963 1 18269560596966550794
68250623 7 18339345431587391134

> <PUBCHEM_SHAPE_MULTIPOLES>
173.48
2.89
1.46
1.03
0.19
0.02
-0.12
1.35
0.24
0.04
-0.15
0.07
-0.41
0.51

> <PUBCHEM_SHAPE_SELFOVERLAP>
349.868

> <PUBCHEM_SHAPE_VOLUME>
103.7

> <PUBCHEM_COORDINATE_TYPE>
2
5
10

$$$$
