102648
  -OEChem-11232108453D

 34 34  0     1  0  0  0  0  0999 V2000
    0.0101    1.5598   -0.7559 O   0  0  0  0  0  0  0  0  0  0  0  0
    0.8085   -0.4722    0.3067 C   0  0  1  0  0  0  0  0  0  0  0  0
   -0.0012    0.8260    0.4676 C   0  0  2  0  0  0  0  0  0  0  0  0
    0.1249   -1.4350   -0.6761 C   0  0  0  0  0  0  0  0  0  0  0  0
   -2.1361   -0.4346   -0.1103 C   0  0  1  0  0  0  0  0  0  0  0  0
   -1.4497    0.5312    0.8688 C   0  0  0  0  0  0  0  0  0  0  0  0
   -1.3189   -1.7231   -0.2681 C   0  0  0  0  0  0  0  0  0  0  0  0
    2.2438   -0.1918   -0.1422 C   0  0  0  0  0  0  0  0  0  0  0  0
   -3.5566   -0.7521    0.3545 C   0  0  0  0  0  0  0  0  0  0  0  0
    2.9186    0.7916    0.8098 C   0  0  0  0  0  0  0  0  0  0  0  0
    3.0398   -1.4910   -0.2290 C   0  0  0  0  0  0  0  0  0  0  0  0
   -0.6832    2.7913   -0.6259 C   0  0  0  0  0  0  0  0  0  0  0  0
    0.8366   -0.9665    1.2889 H   0  0  0  0  0  0  0  0  0  0  0  0
    0.4394    1.4426    1.2599 H   0  0  0  0  0  0  0  0  0  0  0  0
    0.6423   -2.3989   -0.7136 H   0  0  0  0  0  0  0  0  0  0  0  0
    0.1413   -1.0208   -1.6920 H   0  0  0  0  0  0  0  0  0  0  0  0
   -2.2089    0.0511   -1.0920 H   0  0  0  0  0  0  0  0  0  0  0  0
   -2.0507    1.4395    0.9770 H   0  0  0  0  0  0  0  0  0  0  0  0
   -1.4386    0.0700    1.8664 H   0  0  0  0  0  0  0  0  0  0  0  0
   -1.7846   -2.3695   -1.0218 H   0  0  0  0  0  0  0  0  0  0  0  0
   -1.3217   -2.2846    0.6751 H   0  0  0  0  0  0  0  0  0  0  0  0
    2.2466    0.2601   -1.1427 H   0  0  0  0  0  0  0  0  0  0  0  0
   -4.1529    0.1631    0.4333 H   0  0  0  0  0  0  0  0  0  0  0  0
   -4.0577   -1.4179   -0.3559 H   0  0  0  0  0  0  0  0  0  0  0  0
   -3.5558   -1.2413    1.3344 H   0  0  0  0  0  0  0  0  0  0  0  0
    3.9878    0.8749    0.5838 H   0  0  0  0  0  0  0  0  0  0  0  0
    2.5081    1.8015    0.7162 H   0  0  0  0  0  0  0  0  0  0  0  0
    2.8264    0.4707    1.8530 H   0  0  0  0  0  0  0  0  0  0  0  0
    2.9537   -2.0801    0.6904 H   0  0  0  0  0  0  0  0  0  0  0  0
    4.1039   -1.2811   -0.3873 H   0  0  0  0  0  0  0  0  0  0  0  0
    2.7240   -2.1111   -1.0730 H   0  0  0  0  0  0  0  0  0  0  0  0
   -0.4648    3.2940    0.3219 H   0  0  0  0  0  0  0  0  0  0  0  0
   -1.7595    2.6522   -0.7595 H   0  0  0  0  0  0  0  0  0  0  0  0
   -0.3459    3.4460   -1.4354 H   0  0  0  0  0  0  0  0  0  0  0  0
  1  3  1  0  0  0  0
  1 12  1  0  0  0  0
  2  3  1  0  0  0  0
  2  4  1  0  0  0  0
  2  8  1  0  0  0  0
  2 13  1  0  0  0  0
  3  6  1  0  0  0  0
  3 14  1  0  0  0  0
  4  7  1  0  0  0  0
  4 15  1  0  0  0  0
  4 16  1  0  0  0  0
  5  6  1  0  0  0  0
  5  7  1  0  0  0  0
  5  9  1  0  0  0  0
  5 17  1  0  0  0  0
  6 18  1  0  0  0  0
  6 19  1  0  0  0  0
  7 20  1  0  0  0  0
  7 21  1  0  0  0  0
  8 10  1  0  0  0  0
  8 11  1  0  0  0  0
  8 22  1  0  0  0  0
  9 23  1  0  0  0  0
  9 24  1  0  0  0  0
  9 25  1  0  0  0  0
 10 26  1  0  0  0  0
 10 27  1  0  0  0  0
 10 28  1  0  0  0  0
 11 29  1  0  0  0  0
 11 30  1  0  0  0  0
 11 31  1  0  0  0  0
 12 32  1  0  0  0  0
 12 33  1  0  0  0  0
 12 34  1  0  0  0  0
M  END
> <PUBCHEM_COMPOUND_CID>
102648

> <PUBCHEM_CONFORMER_RMSD>
0.6

> <PUBCHEM_CONFORMER_DIVERSEORDER>
4
33
34
24
14
27
32
17
31
35
19
26
7
8
29
10
18
15
13
3
25
20
28
30
23
16
6
11
21
22
2
9
1
12
5

> <PUBCHEM_MMFF94_PARTIAL_CHARGES>
3
1 -0.56
12 0.28
3 0.28

> <PUBCHEM_EFFECTIVE_ROTOR_COUNT>
3.2

> <PUBCHEM_PHARMACOPHORE_FEATURES>
3
1 1 acceptor
3 8 10 11 hydrophobe
6 2 3 4 5 6 7 rings

> <PUBCHEM_HEAVY_ATOM_COUNT>
12

> <PUBCHEM_ATOM_DEF_STEREO_COUNT>
0

> <PUBCHEM_ATOM_UDEF_STEREO_COUNT>
3

> <PUBCHEM_BOND_DEF_STEREO_COUNT>
0

> <PUBCHEM_BOND_UDEF_STEREO_COUNT>
0

> <PUBCHEM_ISOTOPIC_ATOM_COUNT>
0

> <PUBCHEM_COMPONENT_COUNT>
1

> <PUBCHEM_CACTVS_TAUTO_COUNT>
1

> <PUBCHEM_CONFORMER_ID>
000190F800000004

> <PUBCHEM_MMFF94_ENERGY>
28.2422

> <PUBCHEM_FEATURE_SELFOVERLAP>
15.223

> <PUBCHEM_SHAPE_FINGERPRINT>
10219947 1 18412548734153114675
11132069 177 18201710773751321034
11206711 2 18267869367631211982
12032990 46 18409737265641074827
12138202 97 17683241361167770821
12423570 1 9181417636682251880
12524768 44 18341609360509753770
13024252 1 16660651712920882090
13380535 76 17689427187894858413
14993402 34 18339085994134894527
15219459 52 18265059213442227551
161256 15 18412825768202070066
16945 1 18059008513745834954
17844478 74 18409733932561427546
193761 8 17689717459186371063
20511035 2 17913492625450739031
20653085 51 11963662271011906878
207724 885 18410578430754111843
20871998 184 18341332175988866853
21130352 189 18335133245801790533
21501502 16 17904198131237771515
21524375 3 17104808029217424092
23402539 116 18341602707705782231
23419403 2 15186200143505521071
23463225 33 18412267233063851726
23552423 10 17834677475845347383
241688 4 18410012139025763178
2748010 2 18340202981847395869
5084963 1 18340491054263216234
5255222 1 17980208482615313442
6333449 129 18193271897348788365
7364860 26 17907862056443289009
81228 2 18187646843032016585

> <PUBCHEM_SHAPE_MULTIPOLES>
241.09
4.45
2.26
0.89
0.38
1.27
0.03
-1.59
0.76
-0.24
-0.69
0.01
0.18
0.32

> <PUBCHEM_SHAPE_SELFOVERLAP>
466.053

> <PUBCHEM_SHAPE_VOLUME>
147.5

> <PUBCHEM_COORDINATE_TYPE>
2
5
10

$$$$
