102611
  -OEChem-11232108433D

 30 30  0     1  0  0  0  0  0999 V2000
    3.2765   -1.0988    0.1856 O   0  0  0  0  0  0  0  0  0  0  0  0
    2.0724    1.0257   -1.1128 O   0  0  0  0  0  0  0  0  0  0  0  0
    1.9231   -0.7666    0.4677 C   0  0  1  0  0  0  0  0  0  0  0  0
    1.5836    0.6771    0.1846 C   0  0  2  0  0  0  0  0  0  0  0  0
    2.2689   -1.6876   -0.6469 C   0  0  0  0  0  0  0  0  0  0  0  0
    0.0612    0.9337    0.2180 C   0  0  0  0  0  0  0  0  0  0  0  0
    2.2752    1.5883    1.2076 C   0  0  0  0  0  0  0  0  0  0  0  0
   -0.7432    0.1260   -0.8099 C   0  0  0  0  0  0  0  0  0  0  0  0
   -2.2092    0.4510   -0.7247 C   0  0  0  0  0  0  0  0  0  0  0  0
   -3.1433   -0.1601    0.0284 C   0  0  0  0  0  0  0  0  0  0  0  0
   -4.5979    0.2139    0.0691 C   0  0  0  0  0  0  0  0  0  0  0  0
   -2.7673   -1.3028    0.9332 C   0  0  0  0  0  0  0  0  0  0  0  0
    1.4825   -1.1631    1.3717 H   0  0  0  0  0  0  0  0  0  0  0  0
    2.0687   -2.7438   -0.5123 H   0  0  0  0  0  0  0  0  0  0  0  0
    2.2068   -1.3606   -1.6758 H   0  0  0  0  0  0  0  0  0  0  0  0
   -0.3189    0.7188    1.2256 H   0  0  0  0  0  0  0  0  0  0  0  0
   -0.1218    2.0005    0.0282 H   0  0  0  0  0  0  0  0  0  0  0  0
    1.9415    1.3721    2.2281 H   0  0  0  0  0  0  0  0  0  0  0  0
    2.0766    2.6437    0.9890 H   0  0  0  0  0  0  0  0  0  0  0  0
    3.3638    1.4643    1.1756 H   0  0  0  0  0  0  0  0  0  0  0  0
   -0.5737   -0.9486   -0.6930 H   0  0  0  0  0  0  0  0  0  0  0  0
   -0.4024    0.3678   -1.8241 H   0  0  0  0  0  0  0  0  0  0  0  0
    3.0432    0.9688   -1.0956 H   0  0  0  0  0  0  0  0  0  0  0  0
   -2.5279    1.2862   -1.3467 H   0  0  0  0  0  0  0  0  0  0  0  0
   -5.2186   -0.6372   -0.2283 H   0  0  0  0  0  0  0  0  0  0  0  0
   -4.8199    1.0436   -0.6102 H   0  0  0  0  0  0  0  0  0  0  0  0
   -4.8858    0.5224    1.0792 H   0  0  0  0  0  0  0  0  0  0  0  0
   -3.2109   -2.2329    0.5627 H   0  0  0  0  0  0  0  0  0  0  0  0
   -1.6928   -1.4637    1.0422 H   0  0  0  0  0  0  0  0  0  0  0  0
   -3.1546   -1.1203    1.9420 H   0  0  0  0  0  0  0  0  0  0  0  0
  1  3  1  0  0  0  0
  1  5  1  0  0  0  0
  2  4  1  0  0  0  0
  2 23  1  0  0  0  0
  3  4  1  0  0  0  0
  3  5  1  0  0  0  0
  3 13  1  0  0  0  0
  4  6  1  0  0  0  0
  4  7  1  0  0  0  0
  5 14  1  0  0  0  0
  5 15  1  0  0  0  0
  6  8  1  0  0  0  0
  6 16  1  0  0  0  0
  6 17  1  0  0  0  0
  7 18  1  0  0  0  0
  7 19  1  0  0  0  0
  7 20  1  0  0  0  0
  8  9  1  0  0  0  0
  8 21  1  0  0  0  0
  8 22  1  0  0  0  0
  9 10  2  0  0  0  0
  9 24  1  0  0  0  0
 10 11  1  0  0  0  0
 10 12  1  0  0  0  0
 11 25  1  0  0  0  0
 11 26  1  0  0  0  0
 11 27  1  0  0  0  0
 12 28  1  0  0  0  0
 12 29  1  0  0  0  0
 12 30  1  0  0  0  0
M  END
> <PUBCHEM_COMPOUND_CID>
102611

> <PUBCHEM_CONFORMER_RMSD>
0.6

> <PUBCHEM_CONFORMER_DIVERSEORDER>
30
146
84
74
151
155
27
143
2
101
67
108
52
103
154
36
24
21
147
125
59
118
134
65
114
8
135
99
35
82
29
23
148
96
70
87
39
127
12
122
158
14
133
149
31
80
141
75
83
124
142
150
89
88
62
121
45
94
13
9
93
98
129
19
57
120
112
64
156
28
123
86
41
140
106
48
44
161
22
104
116
50
85
78
107
113
17
119
40
79
77
54
61
126
63
105
117
42
145
6
153
68
95
100
73
132
92
136
130
69
47
91
128
102
76
46
71
38
18
56
37
15
66
131
7
115
20
11
111
5
55
138
160
60
53
43
144
51
137
58
10
4
26
33
72
152
109
110
157
49
139
90
3
25
1
16
32
81
34
97
159

> <PUBCHEM_MMFF94_PARTIAL_CHARGES>
15
1 -0.3
10 -0.28
11 0.14
12 0.14
13 0.1
14 0.1
15 0.1
2 -0.68
23 0.4
24 0.15
3 -0.05
4 0.38
5 -0.05
8 0.14
9 -0.29

> <PUBCHEM_EFFECTIVE_ROTOR_COUNT>
4.6

> <PUBCHEM_PHARMACOPHORE_FEATURES>
4
1 1 acceptor
1 2 acceptor
1 2 donor
3 10 11 12 hydrophobe

> <PUBCHEM_HEAVY_ATOM_COUNT>
12

> <PUBCHEM_ATOM_DEF_STEREO_COUNT>
0

> <PUBCHEM_ATOM_UDEF_STEREO_COUNT>
2

> <PUBCHEM_BOND_DEF_STEREO_COUNT>
0

> <PUBCHEM_BOND_UDEF_STEREO_COUNT>
0

> <PUBCHEM_ISOTOPIC_ATOM_COUNT>
0

> <PUBCHEM_COMPONENT_COUNT>
1

> <PUBCHEM_CACTVS_TAUTO_COUNT>
1

> <PUBCHEM_CONFORMER_ID>
000190D30000001E

> <PUBCHEM_MMFF94_ENERGY>
19.3668

> <PUBCHEM_FEATURE_SELFOVERLAP>
20.302

> <PUBCHEM_SHAPE_FINGERPRINT>
10130415 120 18342176631258186897
107287 299 18338521957612788860
12251169 10 17703784812625410399
12346645 6 18131346436194226388
12932764 1 18059574732480806301
13296908 3 18040720294397856867
14350558 41 18408045087017139030
15775835 57 17774435096299226949
18186145 218 18113893828413636181
19766037 51 18197240082047575062
20201158 50 18335984177344086539
20279233 1 18334006224860945883
20559304 39 17846781788749096632
20645477 70 18272082786541515847
20708731 107 18335145297474845948
20711983 138 18335141968938397585
20715346 28 18334842922997492309
20871998 22 17916026750823916942
21730867 7 18411133675467515440
22169311 14 18341896290358447219
23048698 100 17418373618863267593
23402539 116 14779263077794275982
3248919 1 18113891715062964309
581208 293 18262231230965225983

> <PUBCHEM_SHAPE_MULTIPOLES>
235.22
6.83
1.56
1.05
5.92
0.2
0.01
0.91
0.7
-1.33
0.21
-0.14
-0.1
0.66

> <PUBCHEM_SHAPE_SELFOVERLAP>
451.303

> <PUBCHEM_SHAPE_VOLUME>
145.5

> <PUBCHEM_COORDINATE_TYPE>
2
5
10

$$$$
