102681
  -OEChem-11232109023D

 29 29  0     1  0  0  0  0  0999 V2000
    0.0279    2.0484    0.2808 O   0  0  0  0  0  0  0  0  0  0  0  0
   -0.1426   -0.2554   -0.4545 C   0  0  2  0  0  0  0  0  0  0  0  0
   -1.6069   -0.1949   -0.0316 C   0  0  0  0  0  0  0  0  0  0  0  0
    0.5610   -1.4491    0.1985 C   0  0  0  0  0  0  0  0  0  0  0  0
    2.0497   -1.4872   -0.1443 C   0  0  0  0  0  0  0  0  0  0  0  0
    0.6007    1.0297   -0.1031 C   0  0  0  0  0  0  0  0  0  0  0  0
    2.7416   -0.1936    0.2769 C   0  0  0  0  0  0  0  0  0  0  0  0
    2.0922    1.0252   -0.3621 C   0  0  0  0  0  0  0  0  0  0  0  0
   -2.3287   -1.4831   -0.4647 C   0  0  0  0  0  0  0  0  0  0  0  0
   -1.7030   -0.0533    1.4977 C   0  0  0  0  0  0  0  0  0  0  0  0
   -2.2918    1.0133   -0.6936 C   0  0  0  0  0  0  0  0  0  0  0  0
   -0.0776   -0.3573   -1.5468 H   0  0  0  0  0  0  0  0  0  0  0  0
    0.1279   -2.3971   -0.1353 H   0  0  0  0  0  0  0  0  0  0  0  0
    0.4886   -1.4202    1.2906 H   0  0  0  0  0  0  0  0  0  0  0  0
    2.1783   -1.6426   -1.2224 H   0  0  0  0  0  0  0  0  0  0  0  0
    2.5223   -2.3371    0.3614 H   0  0  0  0  0  0  0  0  0  0  0  0
    3.8012   -0.2339    0.0008 H   0  0  0  0  0  0  0  0  0  0  0  0
    2.6969   -0.1012    1.3693 H   0  0  0  0  0  0  0  0  0  0  0  0
    2.2493    1.0312   -1.4461 H   0  0  0  0  0  0  0  0  0  0  0  0
    2.5308    1.9399    0.0500 H   0  0  0  0  0  0  0  0  0  0  0  0
   -1.9957   -2.3644    0.0921 H   0  0  0  0  0  0  0  0  0  0  0  0
   -3.4080   -1.4027   -0.2876 H   0  0  0  0  0  0  0  0  0  0  0  0
   -2.1865   -1.6773   -1.5337 H   0  0  0  0  0  0  0  0  0  0  0  0
   -1.0978    0.7531    1.9180 H   0  0  0  0  0  0  0  0  0  0  0  0
   -1.4371   -0.9777    2.0209 H   0  0  0  0  0  0  0  0  0  0  0  0
   -2.7414    0.1577    1.7845 H   0  0  0  0  0  0  0  0  0  0  0  0
   -1.9695    1.1434   -1.7328 H   0  0  0  0  0  0  0  0  0  0  0  0
   -3.3793    0.8675   -0.7196 H   0  0  0  0  0  0  0  0  0  0  0  0
   -2.1532    1.9569   -0.1602 H   0  0  0  0  0  0  0  0  0  0  0  0
  1  6  2  0  0  0  0
  2  3  1  0  0  0  0
  2  4  1  0  0  0  0
  2  6  1  0  0  0  0
  2 12  1  0  0  0  0
  3  9  1  0  0  0  0
  3 10  1  0  0  0  0
  3 11  1  0  0  0  0
  4  5  1  0  0  0  0
  4 13  1  0  0  0  0
  4 14  1  0  0  0  0
  5  7  1  0  0  0  0
  5 15  1  0  0  0  0
  5 16  1  0  0  0  0
  6  8  1  0  0  0  0
  7  8  1  0  0  0  0
  7 17  1  0  0  0  0
  7 18  1  0  0  0  0
  8 19  1  0  0  0  0
  8 20  1  0  0  0  0
  9 21  1  0  0  0  0
  9 22  1  0  0  0  0
  9 23  1  0  0  0  0
 10 24  1  0  0  0  0
 10 25  1  0  0  0  0
 10 26  1  0  0  0  0
 11 27  1  0  0  0  0
 11 28  1  0  0  0  0
 11 29  1  0  0  0  0
M  END
> <PUBCHEM_COMPOUND_CID>
102681

> <PUBCHEM_CONFORMER_RMSD>
0.4

> <PUBCHEM_CONFORMER_DIVERSEORDER>
1
5
3
2
4

> <PUBCHEM_MMFF94_PARTIAL_CHARGES>
4
1 -0.57
2 0.06
6 0.45
8 0.06

> <PUBCHEM_EFFECTIVE_ROTOR_COUNT>
2

> <PUBCHEM_PHARMACOPHORE_FEATURES>
3
1 1 acceptor
4 3 9 10 11 hydrophobe
6 2 4 5 6 7 8 rings

> <PUBCHEM_HEAVY_ATOM_COUNT>
11

> <PUBCHEM_ATOM_DEF_STEREO_COUNT>
0

> <PUBCHEM_ATOM_UDEF_STEREO_COUNT>
1

> <PUBCHEM_BOND_DEF_STEREO_COUNT>
0

> <PUBCHEM_BOND_UDEF_STEREO_COUNT>
0

> <PUBCHEM_ISOTOPIC_ATOM_COUNT>
0

> <PUBCHEM_COMPONENT_COUNT>
1

> <PUBCHEM_CACTVS_TAUTO_COUNT>
3

> <PUBCHEM_CONFORMER_ID>
0001911900000001

> <PUBCHEM_MMFF94_ENERGY>
27.6291

> <PUBCHEM_FEATURE_SELFOVERLAP>
15.223

> <PUBCHEM_SHAPE_FINGERPRINT>
12423570 1 10124638119092122475
12524768 44 18197784292942515662
12897270 3 18192985135483380511
14128692 85 18057595658658358151
15775835 57 18339932630872983061
16945 1 18267868276661922188
18185500 45 18342175574458887534
20201158 50 18261385603270249270
21040471 1 18265051521366667028
21501502 16 18334292097789313149
23552423 10 18333450928365322190
241688 4 18412260636083411858
2748010 2 18410572885808719590
29004967 10 18334020483999407362
3248919 1 17095241453563866236
369184 2 18411980252023210307
5084963 1 18199468946656303715
528886 8 18339632365393201299
63268167 104 18341896302905764976
66348 1 17761211012169622102

> <PUBCHEM_SHAPE_MULTIPOLES>
220.51
3.68
1.8
0.93
0.48
0.12
0.26
-0.47
-0.17
0.11
-0.11
-0.46
0.01
-0.04

> <PUBCHEM_SHAPE_SELFOVERLAP>
437.697

> <PUBCHEM_SHAPE_VOLUME>
130.9

> <PUBCHEM_COORDINATE_TYPE>
2
5
10

$$$$
