102667
  -OEChem-11232109433D

 27 28  0     1  0  0  0  0  0999 V2000
    2.5677   -0.8790   -0.2442 O   0  0  0  0  0  0  0  0  0  0  0  0
   -1.4158    0.1047    0.1433 C   0  0  0  0  0  0  0  0  0  0  0  0
   -0.6793   -1.2713    0.1181 C   0  0  1  0  0  0  0  0  0  0  0  0
   -0.3275    0.5503   -0.8850 C   0  0  2  0  0  0  0  0  0  0  0  0
   -0.3878   -0.9350   -1.3764 C   0  0  0  0  0  0  0  0  0  0  0  0
    0.5646   -1.2889    1.0266 C   0  0  0  0  0  0  0  0  0  0  0  0
    0.9579    0.8895   -0.1929 C   0  0  0  0  0  0  0  0  0  0  0  0
    1.6005   -0.2320    0.5859 C   0  0  2  0  0  0  0  0  0  0  0  0
   -1.4658    0.8469    1.4638 C   0  0  0  0  0  0  0  0  0  0  0  0
   -2.8272    0.0665   -0.4251 C   0  0  0  0  0  0  0  0  0  0  0  0
    1.4128    2.1486   -0.2141 C   0  0  0  0  0  0  0  0  0  0  0  0
   -1.3184   -2.1453    0.2825 H   0  0  0  0  0  0  0  0  0  0  0  0
   -0.6423    1.2862   -1.6324 H   0  0  0  0  0  0  0  0  0  0  0  0
   -1.1771   -1.1767   -2.0953 H   0  0  0  0  0  0  0  0  0  0  0  0
    0.5348   -1.3516   -1.7938 H   0  0  0  0  0  0  0  0  0  0  0  0
    1.0161   -2.2883    0.9873 H   0  0  0  0  0  0  0  0  0  0  0  0
    0.2662   -1.1287    2.0687 H   0  0  0  0  0  0  0  0  0  0  0  0
    2.1335    0.1387    1.4688 H   0  0  0  0  0  0  0  0  0  0  0  0
   -0.5016    0.9701    1.9626 H   0  0  0  0  0  0  0  0  0  0  0  0
   -1.8698    1.8570    1.3259 H   0  0  0  0  0  0  0  0  0  0  0  0
   -2.1197    0.3282    2.1747 H   0  0  0  0  0  0  0  0  0  0  0  0
   -3.2091    1.0825   -0.5801 H   0  0  0  0  0  0  0  0  0  0  0  0
   -2.9250   -0.4498   -1.3830 H   0  0  0  0  0  0  0  0  0  0  0  0
   -3.5095   -0.4377    0.2696 H   0  0  0  0  0  0  0  0  0  0  0  0
    2.3204    2.4214    0.3141 H   0  0  0  0  0  0  0  0  0  0  0  0
    0.8942    2.9326   -0.7555 H   0  0  0  0  0  0  0  0  0  0  0  0
    3.2392   -0.2180   -0.4854 H   0  0  0  0  0  0  0  0  0  0  0  0
  1  8  1  0  0  0  0
  1 27  1  0  0  0  0
  2  3  1  0  0  0  0
  2  4  1  0  0  0  0
  2  9  1  0  0  0  0
  2 10  1  0  0  0  0
  3  5  1  0  0  0  0
  3  6  1  0  0  0  0
  3 12  1  0  0  0  0
  4  5  1  0  0  0  0
  4  7  1  0  0  0  0
  4 13  1  0  0  0  0
  5 14  1  0  0  0  0
  5 15  1  0  0  0  0
  6  8  1  0  0  0  0
  6 16  1  0  0  0  0
  6 17  1  0  0  0  0
  7  8  1  0  0  0  0
  7 11  2  0  0  0  0
  8 18  1  0  0  0  0
  9 19  1  0  0  0  0
  9 20  1  0  0  0  0
  9 21  1  0  0  0  0
 10 22  1  0  0  0  0
 10 23  1  0  0  0  0
 10 24  1  0  0  0  0
 11 25  1  0  0  0  0
 11 26  1  0  0  0  0
M  END
> <PUBCHEM_COMPOUND_CID>
102667

> <PUBCHEM_CONFORMER_RMSD>
0.4

> <PUBCHEM_CONFORMER_DIVERSEORDER>
1
3
2
4

> <PUBCHEM_MMFF94_PARTIAL_CHARGES>
8
1 -0.68
11 -0.3
25 0.15
26 0.15
27 0.4
4 0.12
7 -0.25
8 0.42

> <PUBCHEM_EFFECTIVE_ROTOR_COUNT>
0.8

> <PUBCHEM_PHARMACOPHORE_FEATURES>
4
1 1 acceptor
1 1 donor
3 2 9 10 hydrophobe
7 2 3 4 5 6 7 8 rings

> <PUBCHEM_HEAVY_ATOM_COUNT>
11

> <PUBCHEM_ATOM_DEF_STEREO_COUNT>
0

> <PUBCHEM_ATOM_UDEF_STEREO_COUNT>
3

> <PUBCHEM_BOND_DEF_STEREO_COUNT>
0

> <PUBCHEM_BOND_UDEF_STEREO_COUNT>
0

> <PUBCHEM_ISOTOPIC_ATOM_COUNT>
0

> <PUBCHEM_COMPONENT_COUNT>
1

> <PUBCHEM_CACTVS_TAUTO_COUNT>
1

> <PUBCHEM_CONFORMER_ID>
0001910B00000001

> <PUBCHEM_MMFF94_ENERGY>
38.5157

> <PUBCHEM_FEATURE_SELFOVERLAP>
20.297

> <PUBCHEM_SHAPE_FINGERPRINT>
12423570 1 15722818901974939979
13024252 1 17096372726606872714
137420 1 12503693948176488035
14993402 34 18341611477733289798
15557651 10 17095510782204349590
16945 1 18262225651818539203
19837323 101 16984663629209264161
207724 885 18270127811764591450
21040471 1 17897446326694827180
21922407 69 17842832501995940444
241688 4 17909553856697970602
2748010 2 17970067953033811167
29004967 10 17604149229152965432
369184 2 17823114869791328320
5084963 1 18272367555568088681
54276843 12 18201991106134783975
63268167 104 18408886252130650112
68250623 7 18196940082903205807

> <PUBCHEM_SHAPE_MULTIPOLES>
220.51
2.79
1.65
1.22
0.42
0.38
-0.1
0.23
0.06
-0.72
-0.05
0.3
-0.07
-0.3

> <PUBCHEM_SHAPE_SELFOVERLAP>
462.666

> <PUBCHEM_SHAPE_VOLUME>
127.9

> <PUBCHEM_COORDINATE_TYPE>
2
5
10

$$$$
