102604
  -OEChem-11232109123D

 38 37  0     1  0  0  0  0  0999 V2000
   -2.9754   -1.4847   -1.2326 O   0  0  0  0  0  0  0  0  0  0  0  0
    0.3120    2.4765    0.0825 C   0  0  1  0  0  0  0  0  0  0  0  0
   -0.8726    1.7594    0.7643 C   0  0  0  0  0  0  0  0  0  0  0  0
    1.4956    1.5590   -0.2846 C   0  0  0  0  0  0  0  0  0  0  0  0
   -1.5606    0.6835   -0.0868 C   0  0  0  0  0  0  0  0  0  0  0  0
   -0.1483    3.2472   -1.1598 C   0  0  0  0  0  0  0  0  0  0  0  0
    2.0116    0.7257    0.8919 C   0  0  0  0  0  0  0  0  0  0  0  0
   -2.6872   -0.0195    0.6718 C   0  0  0  0  0  0  0  0  0  0  0  0
    3.1499   -0.1607    0.4690 C   0  0  0  0  0  0  0  0  0  0  0  0
   -3.3428   -1.1470   -0.1085 C   0  0  0  0  0  0  0  0  0  0  0  0
    3.0788   -1.4164   -0.0117 C   0  0  0  0  0  0  0  0  0  0  0  0
   -4.4665   -1.8690    0.5888 C   0  0  0  0  0  0  0  0  0  0  0  0
    4.2587   -2.2533   -0.4183 C   0  0  0  0  0  0  0  0  0  0  0  0
    1.7468   -2.1006   -0.1659 C   0  0  0  0  0  0  0  0  0  0  0  0
    0.6846    3.2181    0.8024 H   0  0  0  0  0  0  0  0  0  0  0  0
   -1.6229    2.5151    1.0339 H   0  0  0  0  0  0  0  0  0  0  0  0
   -0.5475    1.3251    1.7163 H   0  0  0  0  0  0  0  0  0  0  0  0
    2.3152    2.1779   -0.6741 H   0  0  0  0  0  0  0  0  0  0  0  0
    1.2016    0.8938   -1.1067 H   0  0  0  0  0  0  0  0  0  0  0  0
   -1.9766    1.1317   -0.9964 H   0  0  0  0  0  0  0  0  0  0  0  0
   -0.8302   -0.0622   -0.4140 H   0  0  0  0  0  0  0  0  0  0  0  0
    0.6632    3.8764   -1.5416 H   0  0  0  0  0  0  0  0  0  0  0  0
   -0.9924    3.9033   -0.9230 H   0  0  0  0  0  0  0  0  0  0  0  0
   -0.4519    2.5747   -1.9684 H   0  0  0  0  0  0  0  0  0  0  0  0
    2.3726    1.3950    1.6829 H   0  0  0  0  0  0  0  0  0  0  0  0
    1.2209    0.1298    1.3541 H   0  0  0  0  0  0  0  0  0  0  0  0
   -2.2929   -0.4491    1.5998 H   0  0  0  0  0  0  0  0  0  0  0  0
   -3.4653    0.7073    0.9306 H   0  0  0  0  0  0  0  0  0  0  0  0
    4.1364    0.2927    0.5544 H   0  0  0  0  0  0  0  0  0  0  0  0
   -4.8823   -2.6327   -0.0743 H   0  0  0  0  0  0  0  0  0  0  0  0
   -4.0865   -2.3519    1.4923 H   0  0  0  0  0  0  0  0  0  0  0  0
   -5.2563   -1.1581    0.8441 H   0  0  0  0  0  0  0  0  0  0  0  0
    4.3033   -3.1679    0.1815 H   0  0  0  0  0  0  0  0  0  0  0  0
    4.1848   -2.5297   -1.4749 H   0  0  0  0  0  0  0  0  0  0  0  0
    5.2018   -1.7148   -0.2783 H   0  0  0  0  0  0  0  0  0  0  0  0
    1.6150   -2.4224   -1.2049 H   0  0  0  0  0  0  0  0  0  0  0  0
    1.7109   -2.9906    0.4717 H   0  0  0  0  0  0  0  0  0  0  0  0
    0.8816   -1.4883    0.0851 H   0  0  0  0  0  0  0  0  0  0  0  0
  1 10  2  0  0  0  0
  2  3  1  0  0  0  0
  2  4  1  0  0  0  0
  2  6  1  0  0  0  0
  2 15  1  0  0  0  0
  3  5  1  0  0  0  0
  3 16  1  0  0  0  0
  3 17  1  0  0  0  0
  4  7  1  0  0  0  0
  4 18  1  0  0  0  0
  4 19  1  0  0  0  0
  5  8  1  0  0  0  0
  5 20  1  0  0  0  0
  5 21  1  0  0  0  0
  6 22  1  0  0  0  0
  6 23  1  0  0  0  0
  6 24  1  0  0  0  0
  7  9  1  0  0  0  0
  7 25  1  0  0  0  0
  7 26  1  0  0  0  0
  8 10  1  0  0  0  0
  8 27  1  0  0  0  0
  8 28  1  0  0  0  0
  9 11  2  0  0  0  0
  9 29  1  0  0  0  0
 10 12  1  0  0  0  0
 11 13  1  0  0  0  0
 11 14  1  0  0  0  0
 12 30  1  0  0  0  0
 12 31  1  0  0  0  0
 12 32  1  0  0  0  0
 13 33  1  0  0  0  0
 13 34  1  0  0  0  0
 13 35  1  0  0  0  0
 14 36  1  0  0  0  0
 14 37  1  0  0  0  0
 14 38  1  0  0  0  0
M  END
> <PUBCHEM_COMPOUND_CID>
102604

> <PUBCHEM_CONFORMER_RMSD>
0.8

> <PUBCHEM_CONFORMER_DIVERSEORDER>
1
145
311
135
247
307
37
325
153
60
331
294
297
218
17
50
301
22
75
242
330
249
288
308
234
144
296
275
26
138
238
16
63
148
169
272
290
129
180
323
226
265
13
86
102
161
279
306
107
119
82
39
251
240
228
310
103
176
25
333
256
122
7
284
327
121
214
197
312
35
101
179
156
46
257
321
248
163
285
49
192
168
155
309
130
267
332
324
195
43
18
263
115
326
184
276
160
253
280
287
36
54
205
24
76
199
313
53
244
68
300
329
165
237
246
85
328
206
241
157
139
33
149
134
315
278
136
317
182
254
32
293
269
31
274
104
98
193
137
304
198
232
125
322
127
96
62
291
319
212
112
320
140
215
73
318
159
9
45
71
235
131
141
283
264
175
270
93
201
106
126
211
172
40
229
204
152
133
220
314
83
99
90
81
208
97
77
316
116
252
236
305
219
19
124
114
52
286
6
277
110
55
94
79
273
84
170
298
111
268
289
20
167
74
28
261
222
113
260
27
29
299
89
282
173
15
203
10
123
225
183
174
59
189
51
210
292
58
262
303
105
227
69
259
181
80
250
118
233
67
202
178
207
2
162
70
117
56
108
21
88
150
78
64
186
217
271
243
230
109
302
47
92
221
258
48
239
295
143
11
23
12
120
177
231
188
44
87
128
185
5
34
245
224
66
4
14
190
216
196
132
200
8
147
154
158
151
30
95
166
194
146
3
209
255
266
142
72
191
57
171
281
213
187
38
223
61
164
41
42
91
100
65

> <PUBCHEM_MMFF94_PARTIAL_CHARGES>
10
1 -0.57
10 0.45
11 -0.28
12 0.06
13 0.14
14 0.14
29 0.15
7 0.14
8 0.06
9 -0.29

> <PUBCHEM_EFFECTIVE_ROTOR_COUNT>
7

> <PUBCHEM_PHARMACOPHORE_FEATURES>
3
1 1 acceptor
1 6 hydrophobe
3 11 13 14 hydrophobe

> <PUBCHEM_HEAVY_ATOM_COUNT>
14

> <PUBCHEM_ATOM_DEF_STEREO_COUNT>
0

> <PUBCHEM_ATOM_UDEF_STEREO_COUNT>
1

> <PUBCHEM_BOND_DEF_STEREO_COUNT>
0

> <PUBCHEM_BOND_UDEF_STEREO_COUNT>
0

> <PUBCHEM_ISOTOPIC_ATOM_COUNT>
0

> <PUBCHEM_COMPONENT_COUNT>
1

> <PUBCHEM_CACTVS_TAUTO_COUNT>
3

> <PUBCHEM_CONFORMER_ID>
000190CC00000001

> <PUBCHEM_MMFF94_ENERGY>
13.0305

> <PUBCHEM_FEATURE_SELFOVERLAP>
15.223

> <PUBCHEM_SHAPE_FINGERPRINT>
10618630 7 18412262813732141976
11322862 65 17759522170915571965
116883 192 18262788593245920941
12500047 106 17615122188354224604
12841375 7 18412545392584084732
13533116 47 18124882515547938787
14251705 54 18410574015343115147
14251710 61 18411421708711762915
14251717 144 18266735960206139483
14251731 5 18412830153121346018
14916288 52 17765437543562878902
20291156 8 18412827979725281115
20388580 30 18337396044894786921
20645477 70 18045492273815450979
20671657 53 17968085456433645297
20724930 33 18340207367272891976
20871998 22 18410572907157280272
21665056 4 17472131778613210500
2255824 54 17904486547166936957
23500284 5 18343024363228883873
23530152 11 17327746604566726636
3060560 45 17538005057763459157
4416823 128 18413109433358946194
449060 23 18336264557119642976
5207 123 18411412908908998247

> <PUBCHEM_SHAPE_MULTIPOLES>
282.24
7.53
3.6
0.98
1.7
1.69
0.09
-8.46
-0.21
-0.31
0.94
0.24
0.22
0.33

> <PUBCHEM_SHAPE_SELFOVERLAP>
520.907

> <PUBCHEM_SHAPE_VOLUME>
179

> <PUBCHEM_COORDINATE_TYPE>
2
5
10

$$$$
