102714
  -OEChem-11232109163D

 45 47  0     1  0  0  0  0  0999 V2000
    3.9367   -1.2549    0.4905 O   0  0  0  0  0  0  0  0  0  0  0  0
   -1.9554    1.6065    0.1182 C   0  0  0  0  0  0  0  0  0  0  0  0
   -2.2734   -1.4262   -0.1265 C   0  0  0  0  0  0  0  0  0  0  0  0
   -3.2754    0.8497    0.3869 C   0  0  0  0  0  0  0  0  0  0  0  0
   -3.3899   -0.4102   -0.4541 C   0  0  0  0  0  0  0  0  0  0  0  0
   -0.7531    0.6532    0.0792 C   0  0  0  0  0  0  0  0  0  0  0  0
   -0.9012   -0.7473   -0.0346 C   0  0  0  0  0  0  0  0  0  0  0  0
   -1.8208    2.6599    1.2438 C   0  0  0  0  0  0  0  0  0  0  0  0
   -2.0426    2.3490   -1.2339 C   0  0  0  0  0  0  0  0  0  0  0  0
   -2.3133   -2.4943   -1.2455 C   0  0  0  0  0  0  0  0  0  0  0  0
   -2.5747   -2.1220    1.2196 C   0  0  0  0  0  0  0  0  0  0  0  0
    0.5539    1.1939    0.1221 C   0  0  0  0  0  0  0  0  0  0  0  0
    0.2614   -1.5467   -0.0210 C   0  0  0  0  0  0  0  0  0  0  0  0
    1.7050    0.3938    0.0866 C   0  0  0  0  0  0  0  0  0  0  0  0
    1.5472   -0.9952    0.0550 C   0  0  0  0  0  0  0  0  0  0  0  0
    3.0993    0.9914    0.1703 C   0  0  1  0  0  0  0  0  0  0  0  0
    2.7449   -1.9085    0.0500 C   0  0  0  0  0  0  0  0  0  0  0  0
    4.1562   -0.0463   -0.2332 C   0  0  0  0  0  0  0  0  0  0  0  0
    3.2951    2.2542   -0.6733 C   0  0  0  0  0  0  0  0  0  0  0  0
   -4.1341    1.5015    0.1795 H   0  0  0  0  0  0  0  0  0  0  0  0
   -3.3532    0.5842    1.4487 H   0  0  0  0  0  0  0  0  0  0  0  0
   -4.3755   -0.8651   -0.2905 H   0  0  0  0  0  0  0  0  0  0  0  0
   -3.3597   -0.1397   -1.5171 H   0  0  0  0  0  0  0  0  0  0  0  0
   -0.9986    3.3612    1.0675 H   0  0  0  0  0  0  0  0  0  0  0  0
   -2.7337    3.2615    1.3280 H   0  0  0  0  0  0  0  0  0  0  0  0
   -1.6448    2.1815    2.2146 H   0  0  0  0  0  0  0  0  0  0  0  0
   -2.0924    1.6553   -2.0802 H   0  0  0  0  0  0  0  0  0  0  0  0
   -2.9286    2.9929   -1.2748 H   0  0  0  0  0  0  0  0  0  0  0  0
   -1.1684    2.9898   -1.3989 H   0  0  0  0  0  0  0  0  0  0  0  0
    0.6751    2.2718    0.1848 H   0  0  0  0  0  0  0  0  0  0  0  0
   -3.3266   -2.8950   -1.3683 H   0  0  0  0  0  0  0  0  0  0  0  0
   -2.0021   -2.0711   -2.2080 H   0  0  0  0  0  0  0  0  0  0  0  0
   -1.6614   -3.3484   -1.0344 H   0  0  0  0  0  0  0  0  0  0  0  0
   -2.5124   -1.4268    2.0639 H   0  0  0  0  0  0  0  0  0  0  0  0
   -3.5781   -2.5629    1.2208 H   0  0  0  0  0  0  0  0  0  0  0  0
   -1.8643   -2.9324    1.4221 H   0  0  0  0  0  0  0  0  0  0  0  0
    0.1750   -2.6306   -0.0611 H   0  0  0  0  0  0  0  0  0  0  0  0
    3.2600    1.2433    1.2275 H   0  0  0  0  0  0  0  0  0  0  0  0
    2.5758   -2.7514    0.7285 H   0  0  0  0  0  0  0  0  0  0  0  0
    2.9081   -2.3068   -0.9583 H   0  0  0  0  0  0  0  0  0  0  0  0
    4.1470   -0.2534   -1.3114 H   0  0  0  0  0  0  0  0  0  0  0  0
    5.1576    0.3170    0.0225 H   0  0  0  0  0  0  0  0  0  0  0  0
    3.0381    2.0755   -1.7235 H   0  0  0  0  0  0  0  0  0  0  0  0
    2.6772    3.0825   -0.3129 H   0  0  0  0  0  0  0  0  0  0  0  0
    4.3367    2.5914   -0.6314 H   0  0  0  0  0  0  0  0  0  0  0  0
  1 17  1  0  0  0  0
  1 18  1  0  0  0  0
  2  4  1  0  0  0  0
  2  6  1  0  0  0  0
  2  8  1  0  0  0  0
  2  9  1  0  0  0  0
  3  5  1  0  0  0  0
  3  7  1  0  0  0  0
  3 10  1  0  0  0  0
  3 11  1  0  0  0  0
  4  5  1  0  0  0  0
  4 20  1  0  0  0  0
  4 21  1  0  0  0  0
  5 22  1  0  0  0  0
  5 23  1  0  0  0  0
  6  7  2  0  0  0  0
  6 12  1  0  0  0  0
  7 13  1  0  0  0  0
  8 24  1  0  0  0  0
  8 25  1  0  0  0  0
  8 26  1  0  0  0  0
  9 27  1  0  0  0  0
  9 28  1  0  0  0  0
  9 29  1  0  0  0  0
 10 31  1  0  0  0  0
 10 32  1  0  0  0  0
 10 33  1  0  0  0  0
 11 34  1  0  0  0  0
 11 35  1  0  0  0  0
 11 36  1  0  0  0  0
 12 14  2  0  0  0  0
 12 30  1  0  0  0  0
 13 15  2  0  0  0  0
 13 37  1  0  0  0  0
 14 15  1  0  0  0  0
 14 16  1  0  0  0  0
 15 17  1  0  0  0  0
 16 18  1  0  0  0  0
 16 19  1  0  0  0  0
 16 38  1  0  0  0  0
 17 39  1  0  0  0  0
 17 40  1  0  0  0  0
 18 41  1  0  0  0  0
 18 42  1  0  0  0  0
 19 43  1  0  0  0  0
 19 44  1  0  0  0  0
 19 45  1  0  0  0  0
M  END
> <PUBCHEM_COMPOUND_CID>
102714

> <PUBCHEM_CONFORMER_RMSD>
0.6

> <PUBCHEM_CONFORMER_DIVERSEORDER>
2
1

> <PUBCHEM_MMFF94_PARTIAL_CHARGES>
14
1 -0.56
12 -0.15
13 -0.15
14 -0.14
15 -0.14
16 0.14
17 0.42
18 0.28
2 0.14
3 0.14
30 0.15
37 0.15
6 -0.14
7 -0.14

> <PUBCHEM_EFFECTIVE_ROTOR_COUNT>
1.6

> <PUBCHEM_PHARMACOPHORE_FEATURES>
6
1 1 acceptor
3 2 8 9 hydrophobe
3 3 10 11 hydrophobe
6 1 14 15 16 17 18 rings
6 2 3 4 5 6 7 rings
6 6 7 12 13 14 15 rings

> <PUBCHEM_HEAVY_ATOM_COUNT>
19

> <PUBCHEM_ATOM_DEF_STEREO_COUNT>
0

> <PUBCHEM_ATOM_UDEF_STEREO_COUNT>
1

> <PUBCHEM_BOND_DEF_STEREO_COUNT>
0

> <PUBCHEM_BOND_UDEF_STEREO_COUNT>
0

> <PUBCHEM_ISOTOPIC_ATOM_COUNT>
0

> <PUBCHEM_COMPONENT_COUNT>
1

> <PUBCHEM_CACTVS_TAUTO_COUNT>
1

> <PUBCHEM_CONFORMER_ID>
0001913A00000002

> <PUBCHEM_MMFF94_ENERGY>
65.8277

> <PUBCHEM_FEATURE_SELFOVERLAP>
30.486

> <PUBCHEM_SHAPE_FINGERPRINT>
10062212 137 18410003330396368858
10608611 8 18408881824167022004
10616163 171 18413111679685117662
10967382 1 18411136935120709720
11132069 177 18341044202826955024
11578080 2 17344891113637796785
12173636 292 18058167224432427473
12403814 3 18186805747181430845
12553582 1 18125721446164989255
12730499 353 17323230421439969261
13027679 85 18198625630482147817
13140716 1 18410856525686317992
13224815 77 18335143145585298232
14178342 30 18339347571018746506
14223421 5 18408323315177980288
14614273 12 18334290946806779629
14787075 74 17320426013373290770
14790565 3 17327478315767524553
15196674 1 18410575114759511507
15309172 13 18122069693471756353
15442244 35 18266740182359334642
15536298 74 18342175575070596336
16752209 62 18266157484103945267
16945 1 18343304734367110195
17492 89 18410011044158223554
18186145 218 18197220235251379372
19591789 44 15461014905982422250
200 152 18201425974670311989
20510252 161 18339928228520870920
21267235 1 18411145739856881742
21501502 16 18410856568493468272
21524375 3 18121780530645731113
21634736 98 18410014355724695014
21731228 192 17981338798044143801
221490 88 18335991938856165226
2334 1 18410575115023249120
23366157 5 18040155115730864194
23388829 49 18193841676273563909
23402539 116 18131340909172657991
23419403 2 16679705274615127705
23463225 33 18409448072771150292
23557571 272 18200603604112434414
23559900 14 18341887481581080648
238 59 16455129676918796165
2748010 2 18412825763769978822
335352 9 18050567344215622062
34934 24 18340482387019206255
350125 39 18410016520108994456
352729 6 18270964531343922891
474 4 17677056870850771204
5104073 3 18410571769750193634
559249 180 18118675518547045738
58051976 100 18409173194695414444
69090 78 18339357462053998643
6992083 37 18263089816355488892
7097593 13 17971464114180254962
74978 22 18337953372788901716
7832392 63 18338237038399263480
81228 2 18408318912984312177
8809292 202 18334859415550628611
90525 40 18202001010271593559
9709674 26 18411704253262145190
9981440 41 17829889094697035376

> <PUBCHEM_SHAPE_MULTIPOLES>
385.14
6.71
3.05
1
4.87
0.46
-0.03
-0.35
-0.18
-1.26
-0.1
-0.64
0.09
-0.51

> <PUBCHEM_SHAPE_SELFOVERLAP>
820.027

> <PUBCHEM_SHAPE_VOLUME>
215.2

> <PUBCHEM_COORDINATE_TYPE>
2
5
10

$$$$
