102820
  -OEChem-11232109243D

 29 28  0     1  0  0  0  0  0999 V2000
    0.3665    0.1672    0.3292 O   0  0  0  0  0  0  0  0  0  0  0  0
   -0.8999    1.1260   -1.3439 O   0  0  0  0  0  0  0  0  0  0  0  0
   -1.9749    0.1570    0.6115 C   0  0  1  0  0  0  0  0  0  0  0  0
    2.7869    0.0192    0.3984 C   0  0  0  0  0  0  0  0  0  0  0  0
   -2.9317   -0.8001   -0.1144 C   0  0  0  0  0  0  0  0  0  0  0  0
    1.5616    0.4973   -0.3854 C   0  0  0  0  0  0  0  0  0  0  0  0
   -0.8006    0.5440   -0.2714 C   0  0  0  0  0  0  0  0  0  0  0  0
   -2.6971    1.4323    1.0369 C   0  0  0  0  0  0  0  0  0  0  0  0
    2.7676   -1.4986    0.5913 C   0  0  0  0  0  0  0  0  0  0  0  0
    4.0715    0.4482   -0.3070 C   0  0  0  0  0  0  0  0  0  0  0  0
   -2.2499   -2.0925   -0.5453 C   0  0  0  0  0  0  0  0  0  0  0  0
   -1.5957   -0.3404    1.5134 H   0  0  0  0  0  0  0  0  0  0  0  0
    2.7625    0.4764    1.3958 H   0  0  0  0  0  0  0  0  0  0  0  0
   -3.7720   -1.0457    0.5460 H   0  0  0  0  0  0  0  0  0  0  0  0
   -3.3533   -0.3137   -1.0028 H   0  0  0  0  0  0  0  0  0  0  0  0
    1.6065    1.5855   -0.5153 H   0  0  0  0  0  0  0  0  0  0  0  0
    1.5335    0.0235   -1.3745 H   0  0  0  0  0  0  0  0  0  0  0  0
   -3.1139    1.9649    0.1748 H   0  0  0  0  0  0  0  0  0  0  0  0
   -3.5184    1.2036    1.7241 H   0  0  0  0  0  0  0  0  0  0  0  0
   -2.0101    2.1171    1.5463 H   0  0  0  0  0  0  0  0  0  0  0  0
    3.6489   -1.8293    1.1514 H   0  0  0  0  0  0  0  0  0  0  0  0
    2.7635   -2.0206   -0.3716 H   0  0  0  0  0  0  0  0  0  0  0  0
    1.8822   -1.8152    1.1522 H   0  0  0  0  0  0  0  0  0  0  0  0
    4.9521    0.1366    0.2645 H   0  0  0  0  0  0  0  0  0  0  0  0
    4.1114    1.5374   -0.4135 H   0  0  0  0  0  0  0  0  0  0  0  0
    4.1431    0.0069   -1.3070 H   0  0  0  0  0  0  0  0  0  0  0  0
   -1.4659   -1.9075   -1.2859 H   0  0  0  0  0  0  0  0  0  0  0  0
   -2.9816   -2.7695   -0.9978 H   0  0  0  0  0  0  0  0  0  0  0  0
   -1.8014   -2.6036    0.3127 H   0  0  0  0  0  0  0  0  0  0  0  0
  1  6  1  0  0  0  0
  1  7  1  0  0  0  0
  2  7  2  0  0  0  0
  3  5  1  0  0  0  0
  3  7  1  0  0  0  0
  3  8  1  0  0  0  0
  3 12  1  0  0  0  0
  4  6  1  0  0  0  0
  4  9  1  0  0  0  0
  4 10  1  0  0  0  0
  4 13  1  0  0  0  0
  5 11  1  0  0  0  0
  5 14  1  0  0  0  0
  5 15  1  0  0  0  0
  6 16  1  0  0  0  0
  6 17  1  0  0  0  0
  8 18  1  0  0  0  0
  8 19  1  0  0  0  0
  8 20  1  0  0  0  0
  9 21  1  0  0  0  0
  9 22  1  0  0  0  0
  9 23  1  0  0  0  0
 10 24  1  0  0  0  0
 10 25  1  0  0  0  0
 10 26  1  0  0  0  0
 11 27  1  0  0  0  0
 11 28  1  0  0  0  0
 11 29  1  0  0  0  0
M  END
> <PUBCHEM_COMPOUND_CID>
102820

> <PUBCHEM_CONFORMER_RMSD>
0.6

> <PUBCHEM_CONFORMER_DIVERSEORDER>
1
108
98
82
48
109
85
99
87
114
113
38
80
66
21
25
53
31
29
93
117
103
62
47
23
74
75
84
27
60
100
41
55
14
101
102
77
51
91
33
106
92
26
44
64
71
8
28
61
69
43
30
116
112
67
49
104
54
110
63
19
4
97
35
24
34
57
20
7
107
37
83
32
68
15
96
81
89
72
70
6
2
13
95
59
52
11
5
76
12
56
111
18
115
90
10
42
9
58
79
46
78
50
88
65
73
36
105
17
86
16
94
40
45
39
22
3

> <PUBCHEM_MMFF94_PARTIAL_CHARGES>
5
1 -0.43
2 -0.57
3 0.06
6 0.28
7 0.66

> <PUBCHEM_EFFECTIVE_ROTOR_COUNT>
5

> <PUBCHEM_PHARMACOPHORE_FEATURES>
4
1 11 hydrophobe
1 2 acceptor
1 8 hydrophobe
3 4 9 10 hydrophobe

> <PUBCHEM_HEAVY_ATOM_COUNT>
11

> <PUBCHEM_ATOM_DEF_STEREO_COUNT>
0

> <PUBCHEM_ATOM_UDEF_STEREO_COUNT>
1

> <PUBCHEM_BOND_DEF_STEREO_COUNT>
0

> <PUBCHEM_BOND_UDEF_STEREO_COUNT>
0

> <PUBCHEM_ISOTOPIC_ATOM_COUNT>
0

> <PUBCHEM_COMPONENT_COUNT>
1

> <PUBCHEM_CACTVS_TAUTO_COUNT>
1

> <PUBCHEM_CONFORMER_ID>
000191A400000001

> <PUBCHEM_MMFF94_ENERGY>
9.0745

> <PUBCHEM_FEATURE_SELFOVERLAP>
20.298

> <PUBCHEM_SHAPE_FINGERPRINT>
10857977 72 17060622234730828089
12251169 10 18413114960960848089
124424 183 16486693554806396776
12500047 106 18201155455738422441
12932764 1 18187645765395664516
13024252 1 15430035440199754045
14325111 11 18412546496474913154
14390081 3 10231747894784076154
14445660 50 18411145718424048616
14577589 140 18334581200823061729
15775835 57 18408608041397571890
19422 9 18412830179202145770
20279233 1 16081088181922229608
20645477 70 17749941159840541666
20871998 184 17917435366931997767
22485316 2 18408880746050882042
23402539 116 17312813888695366684
23500284 5 18338238296788368899
3248919 1 17988073405358374796
581208 293 18113615703532502522
75552 356 18272091634073879399

> <PUBCHEM_SHAPE_MULTIPOLES>
214.64
6.41
1.66
0.97
4.46
0.74
0.08
0.58
-0.57
-1.16
-0.01
-0.22
-0.19
-0.84

> <PUBCHEM_SHAPE_SELFOVERLAP>
394.957

> <PUBCHEM_SHAPE_VOLUME>
137.4

> <PUBCHEM_COORDINATE_TYPE>
2
5
10

$$$$
