102895
  -OEChem-11232108493D

 38 37  0     1  0  0  0  0  0999 V2000
   -3.1568    1.9173   -0.8407 O   0  0  0  0  0  0  0  0  0  0  0  0
   -3.0477    1.3361    1.3491 O   0  0  0  0  0  0  0  0  0  0  0  0
   -0.4434   -0.2246   -0.4041 C   0  0  0  0  0  0  0  0  0  0  0  0
   -1.6489   -1.0227    0.1023 C   0  0  0  0  0  0  0  0  0  0  0  0
    0.8699   -0.8160    0.1162 C   0  0  0  0  0  0  0  0  0  0  0  0
   -3.0015   -0.4231   -0.3308 C   0  0  1  0  0  0  0  0  0  0  0  0
    2.0718    0.0057   -0.3540 C   0  0  0  0  0  0  0  0  0  0  0  0
    3.4135   -0.5290    0.1558 C   0  0  0  0  0  0  0  0  0  0  0  0
   -4.1995   -1.2130    0.2185 C   0  0  0  0  0  0  0  0  0  0  0  0
    4.6471    0.3013   -0.2120 C   0  0  0  0  0  0  0  0  0  0  0  0
    5.9477   -0.2464    0.3759 C   0  0  0  0  0  0  0  0  0  0  0  0
   -3.0628    1.0137    0.1675 C   0  0  0  0  0  0  0  0  0  0  0  0
   -5.5392   -0.6587   -0.2515 C   0  0  0  0  0  0  0  0  0  0  0  0
    7.1498    0.5595   -0.0921 C   0  0  0  0  0  0  0  0  0  0  0  0
   -0.5065    0.8190   -0.0769 H   0  0  0  0  0  0  0  0  0  0  0  0
   -0.4410   -0.2207   -1.5007 H   0  0  0  0  0  0  0  0  0  0  0  0
   -1.5807   -2.0542   -0.2652 H   0  0  0  0  0  0  0  0  0  0  0  0
   -1.6078   -1.0756    1.1982 H   0  0  0  0  0  0  0  0  0  0  0  0
    0.8537   -0.8425    1.2125 H   0  0  0  0  0  0  0  0  0  0  0  0
    0.9731   -1.8507   -0.2317 H   0  0  0  0  0  0  0  0  0  0  0  0
   -3.0485   -0.4186   -1.4273 H   0  0  0  0  0  0  0  0  0  0  0  0
    1.9537    1.0428   -0.0161 H   0  0  0  0  0  0  0  0  0  0  0  0
    2.0917    0.0310   -1.4504 H   0  0  0  0  0  0  0  0  0  0  0  0
    3.5506   -1.5511   -0.2197 H   0  0  0  0  0  0  0  0  0  0  0  0
    3.3634   -0.6069    1.2495 H   0  0  0  0  0  0  0  0  0  0  0  0
   -4.1193   -2.2580   -0.1041 H   0  0  0  0  0  0  0  0  0  0  0  0
   -4.1839   -1.2158    1.3153 H   0  0  0  0  0  0  0  0  0  0  0  0
    4.5014    1.3323    0.1334 H   0  0  0  0  0  0  0  0  0  0  0  0
    4.7286    0.3434   -1.3052 H   0  0  0  0  0  0  0  0  0  0  0  0
    5.8980   -0.2256    1.4705 H   0  0  0  0  0  0  0  0  0  0  0  0
    6.0787   -1.2925    0.0761 H   0  0  0  0  0  0  0  0  0  0  0  0
   -6.3545   -1.2944    0.1084 H   0  0  0  0  0  0  0  0  0  0  0  0
   -5.5895   -0.6307   -1.3446 H   0  0  0  0  0  0  0  0  0  0  0  0
   -5.7135    0.3523    0.1288 H   0  0  0  0  0  0  0  0  0  0  0  0
    8.0693    0.1540    0.3414 H   0  0  0  0  0  0  0  0  0  0  0  0
    7.2448    0.5262   -1.1821 H   0  0  0  0  0  0  0  0  0  0  0  0
    7.0628    1.6069    0.2140 H   0  0  0  0  0  0  0  0  0  0  0  0
   -3.2036    2.8374   -0.5038 H   0  0  0  0  0  0  0  0  0  0  0  0
  1 12  1  0  0  0  0
  1 38  1  0  0  0  0
  2 12  2  0  0  0  0
  3  4  1  0  0  0  0
  3  5  1  0  0  0  0
  3 15  1  0  0  0  0
  3 16  1  0  0  0  0
  4  6  1  0  0  0  0
  4 17  1  0  0  0  0
  4 18  1  0  0  0  0
  5  7  1  0  0  0  0
  5 19  1  0  0  0  0
  5 20  1  0  0  0  0
  6  9  1  0  0  0  0
  6 12  1  0  0  0  0
  6 21  1  0  0  0  0
  7  8  1  0  0  0  0
  7 22  1  0  0  0  0
  7 23  1  0  0  0  0
  8 10  1  0  0  0  0
  8 24  1  0  0  0  0
  8 25  1  0  0  0  0
  9 13  1  0  0  0  0
  9 26  1  0  0  0  0
  9 27  1  0  0  0  0
 10 11  1  0  0  0  0
 10 28  1  0  0  0  0
 10 29  1  0  0  0  0
 11 14  1  0  0  0  0
 11 30  1  0  0  0  0
 11 31  1  0  0  0  0
 13 32  1  0  0  0  0
 13 33  1  0  0  0  0
 13 34  1  0  0  0  0
 14 35  1  0  0  0  0
 14 36  1  0  0  0  0
 14 37  1  0  0  0  0
M  END
> <PUBCHEM_COMPOUND_CID>
102895

> <PUBCHEM_CONFORMER_RMSD>
0.8

> <PUBCHEM_CONFORMER_DIVERSEORDER>
1
64
111
336
108
205
156
195
48
444
212
198
78
19
415
225
278
49
443
287
27
403
332
260
14
121
384
297
242
51
310
338
167
5
430
379
290
85
12
452
3
428
103
304
440
65
361
381
152
179
13
146
23
31
253
267
154
454
87
330
375
148
285
438
448
76
138
104
243
169
8
344
32
348
302
334
67
414
265
117
163
22
136
21
211
391
248
46
239
155
301
421
408
273
68
269
116
445
17
433
320
82
230
52
318
456
292
436
4
299
105
259
283
264
63
431
424
80
372
53
200
392
196
11
20
350
356
182
262
369
55
244
419
451
327
34
303
229
426
118
54
305
227
115
396
441
300
281
134
342
316
100
43
270
10
442
220
352
420
337
355
56
122
151
86
25
61
192
18
92
376
173
422
110
172
373
128
416
185
191
363
199
57
123
368
94
204
296
286
102
312
247
319
175
36
33
450
241
127
457
311
190
386
354
9
149
435
219
349
425
326
374
289
389
380
245
455
45
234
358
294
213
377
250
280
141
38
427
81
15
145
308
69
277
390
210
47
120
434
30
109
423
447
429
71
329
412
393
235
246
150
176
324
29
395
256
35
139
360
272
353
411
24
144
407
362
249
147
26
194
40
28
359
184
371
178
236
255
114
388
293
340
91
404
315
107
79
166
432
153
39
159
254
295
16
160
228
387
258
341
183
400
397
62
142
366
189
99
261
345
233
291
240
383
59
284
398
222
95
41
399
168
449
101
58
378
328
2
365
418
93
268
197
215
72
238
88
37
132
42
347
357
125
119
97
322
126
84
335
385
130
237
112
77
406
446
50
7
89
74
276
321
339
162
96
405
410
164
129
75
306
218
131
157
161
106
307
206
70
224
209
346
274
6
364
193
186
133
279
367
251
73
66
282
203
453
288
325
257
158
351
409
413
113
223
252
216
298
231
181
171
263
174
180
187
217
439
60
98
266
83
313
370
331
417
188
437
165
177
44
143
314
394
402
323
343
124
271
401
90
207
221
208
232
317
309
275
214
137
135
140
226
382
170
333
202
201

> <PUBCHEM_MMFF94_PARTIAL_CHARGES>
5
1 -0.65
12 0.66
2 -0.57
38 0.5
6 0.06

> <PUBCHEM_EFFECTIVE_ROTOR_COUNT>
9

> <PUBCHEM_PHARMACOPHORE_FEATURES>
5
1 1 acceptor
1 13 hydrophobe
1 14 hydrophobe
1 2 acceptor
3 1 2 12 anion

> <PUBCHEM_HEAVY_ATOM_COUNT>
14

> <PUBCHEM_ATOM_DEF_STEREO_COUNT>
0

> <PUBCHEM_ATOM_UDEF_STEREO_COUNT>
1

> <PUBCHEM_BOND_DEF_STEREO_COUNT>
0

> <PUBCHEM_BOND_UDEF_STEREO_COUNT>
0

> <PUBCHEM_ISOTOPIC_ATOM_COUNT>
0

> <PUBCHEM_COMPONENT_COUNT>
1

> <PUBCHEM_CACTVS_TAUTO_COUNT>
1

> <PUBCHEM_CONFORMER_ID>
000191EF00000001

> <PUBCHEM_MMFF94_ENERGY>
4.2327

> <PUBCHEM_FEATURE_SELFOVERLAP>
25.431

> <PUBCHEM_SHAPE_FINGERPRINT>
11315181 36 16515688857209226652
12091667 2 18060699507438461694
13073987 5 18131074784013625466
14123238 8 18410575093696307078
14251718 22 18413388748225654162
14251764 18 18187361039798682458
14251764 46 15123792894468415878
15501527 16 18342461404601092689
17802600 8 18409728482538241701
17834072 33 18409165545638351950
17834076 25 13973968714117000870
19433438 28 18341609347809364560
19489759 90 18409166619105908394
20281389 69 18334572452444431448
20645477 56 18059855077559410110
20645477 70 17346328042608623310
20767249 213 18412262856871718934
20828058 44 11025798699831905010
23402539 116 18411977001239746591
23557571 272 17846505824225930629
26918003 58 13695587754473571054
3545911 37 18060138752160672006
42788 4 18411136944575833574
54446538 1 18334294292829058644
57583515 80 15574428825648961335
8209 1 18333448764055343278

> <PUBCHEM_SHAPE_MULTIPOLES>
276.37
16.09
1.3
0.8
22.24
0.46
0.1
0.85
0.28
-1.65
0.01
-0.37
0.18
-0.2

> <PUBCHEM_SHAPE_SELFOVERLAP>
505.134

> <PUBCHEM_SHAPE_VOLUME>
176.2

> <PUBCHEM_COORDINATE_TYPE>
2
5
10

$$$$
