102849
  -OEChem-11232108453D

 32 32  0     1  0  0  0  0  0999 V2000
    0.8618   -0.2097    0.3132 O   0  0  0  0  0  0  0  0  0  0  0  0
    3.1777    0.1929    0.0771 O   0  0  0  0  0  0  0  0  0  0  0  0
   -0.7652    1.4859    0.8508 C   0  0  0  0  0  0  0  0  0  0  0  0
    0.5176    1.1525    0.0970 C   0  0  0  0  0  0  0  0  0  0  0  0
    2.0639   -0.5819   -0.3736 C   0  0  1  0  0  0  0  0  0  0  0  0
   -1.9401    0.6666    0.3747 C   0  0  0  0  0  0  0  0  0  0  0  0
    2.3128   -2.0514   -0.0579 C   0  0  0  0  0  0  0  0  0  0  0  0
   -2.7291    1.1467   -0.6587 C   0  0  0  0  0  0  0  0  0  0  0  0
   -2.2087   -0.5515    0.9792 C   0  0  0  0  0  0  0  0  0  0  0  0
    4.4013   -0.1828   -0.5405 C   0  0  0  0  0  0  0  0  0  0  0  0
   -3.8147    0.3895   -1.0989 C   0  0  0  0  0  0  0  0  0  0  0  0
   -3.2943   -1.3086    0.5388 C   0  0  0  0  0  0  0  0  0  0  0  0
   -4.0973   -0.8380   -0.5003 C   0  0  0  0  0  0  0  0  0  0  0  0
    5.5143    0.6899   -0.0009 C   0  0  0  0  0  0  0  0  0  0  0  0
   -0.6200    1.3073    1.9241 H   0  0  0  0  0  0  0  0  0  0  0  0
   -0.9913    2.5541    0.7452 H   0  0  0  0  0  0  0  0  0  0  0  0
    1.3188    1.8032    0.4649 H   0  0  0  0  0  0  0  0  0  0  0  0
    0.3879    1.3307   -0.9772 H   0  0  0  0  0  0  0  0  0  0  0  0
    1.9148   -0.4422   -1.4513 H   0  0  0  0  0  0  0  0  0  0  0  0
    2.6675   -2.1779    0.9711 H   0  0  0  0  0  0  0  0  0  0  0  0
    3.0493   -2.5021   -0.7295 H   0  0  0  0  0  0  0  0  0  0  0  0
    1.3860   -2.6277   -0.1563 H   0  0  0  0  0  0  0  0  0  0  0  0
   -2.5156    2.1006   -1.1325 H   0  0  0  0  0  0  0  0  0  0  0  0
   -1.5904   -0.9273    1.7893 H   0  0  0  0  0  0  0  0  0  0  0  0
    4.6645   -1.2188   -0.3110 H   0  0  0  0  0  0  0  0  0  0  0  0
    4.3219   -0.0608   -1.6263 H   0  0  0  0  0  0  0  0  0  0  0  0
   -4.4396    0.7556   -1.9083 H   0  0  0  0  0  0  0  0  0  0  0  0
   -3.5144   -2.2647    1.0049 H   0  0  0  0  0  0  0  0  0  0  0  0
   -4.9424   -1.4277   -0.8431 H   0  0  0  0  0  0  0  0  0  0  0  0
    6.4731    0.4293   -0.4576 H   0  0  0  0  0  0  0  0  0  0  0  0
    5.3051    1.7465   -0.1986 H   0  0  0  0  0  0  0  0  0  0  0  0
    5.5988    0.5805    1.0854 H   0  0  0  0  0  0  0  0  0  0  0  0
  1  4  1  0  0  0  0
  1  5  1  0  0  0  0
  2  5  1  0  0  0  0
  2 10  1  0  0  0  0
  3  4  1  0  0  0  0
  3  6  1  0  0  0  0
  3 15  1  0  0  0  0
  3 16  1  0  0  0  0
  4 17  1  0  0  0  0
  4 18  1  0  0  0  0
  5  7  1  0  0  0  0
  5 19  1  0  0  0  0
  6  8  2  0  0  0  0
  6  9  1  0  0  0  0
  7 20  1  0  0  0  0
  7 21  1  0  0  0  0
  7 22  1  0  0  0  0
  8 11  1  0  0  0  0
  8 23  1  0  0  0  0
  9 12  2  0  0  0  0
  9 24  1  0  0  0  0
 10 14  1  0  0  0  0
 10 25  1  0  0  0  0
 10 26  1  0  0  0  0
 11 13  2  0  0  0  0
 11 27  1  0  0  0  0
 12 13  1  0  0  0  0
 12 28  1  0  0  0  0
 13 29  1  0  0  0  0
 14 30  1  0  0  0  0
 14 31  1  0  0  0  0
 14 32  1  0  0  0  0
M  END
> <PUBCHEM_COMPOUND_CID>
102849

> <PUBCHEM_CONFORMER_RMSD>
0.6

> <PUBCHEM_CONFORMER_DIVERSEORDER>
1
58
42
75
88
33
56
57
64
86
61
45
16
72
69
6
70
15
82
28
25
47
55
7
74
62
67
71
85
12
17
77
51
83
53
44
21
9
89
10
78
39
20
26
80
54
81
87
43
52
63
27
73
48
34
14
24
41
8
40
11
32
19
29
46
23
90
31
30
35
49
59
65
38
68
4
13
18
2
60
76
3
22
5
79
37
50
36
66
84

> <PUBCHEM_MMFF94_PARTIAL_CHARGES>
17
1 -0.56
10 0.28
11 -0.15
12 -0.15
13 -0.15
2 -0.56
23 0.15
24 0.15
27 0.15
28 0.15
29 0.15
3 0.14
4 0.28
5 0.56
6 -0.14
8 -0.15
9 -0.15

> <PUBCHEM_EFFECTIVE_ROTOR_COUNT>
6

> <PUBCHEM_PHARMACOPHORE_FEATURES>
3
1 1 acceptor
1 2 acceptor
6 6 8 9 11 12 13 rings

> <PUBCHEM_HEAVY_ATOM_COUNT>
14

> <PUBCHEM_ATOM_DEF_STEREO_COUNT>
0

> <PUBCHEM_ATOM_UDEF_STEREO_COUNT>
1

> <PUBCHEM_BOND_DEF_STEREO_COUNT>
0

> <PUBCHEM_BOND_UDEF_STEREO_COUNT>
0

> <PUBCHEM_ISOTOPIC_ATOM_COUNT>
0

> <PUBCHEM_COMPONENT_COUNT>
1

> <PUBCHEM_CACTVS_TAUTO_COUNT>
1

> <PUBCHEM_CONFORMER_ID>
000191C100000001

> <PUBCHEM_MMFF94_ENERGY>
30.5933

> <PUBCHEM_FEATURE_SELFOVERLAP>
15.261

> <PUBCHEM_SHAPE_FINGERPRINT>
11615757 297 17132113554684870688
11806522 49 18343022215929799776
12251169 10 11455889174411523993
124424 183 8718827574249722346
12815109 37 18342175570464431709
14004511 7 11746938698171151056
15375358 24 18260267438715544826
17834072 14 18186239515672106668
19433438 38 18040996249972281487
19489759 90 17458340849543226256
200 152 18201998832875830061
20201158 50 18409730660076039795
20279233 1 18259990353084647346
20645464 45 9439405748534332657
20645476 183 16370719362116701755
20645477 56 17968094179887042669
20645477 70 18339922589392965110
20671657 1 10086767412696014914
20671657 53 18341898493212920505
20871999 31 18187354416568930037
21079973 296 18336265729729928624
22485316 2 18341894065148688863
22959321 105 18334577923451947452
23402539 116 16515680052795275868
23403322 49 18412825772354800999
23557571 272 17894629236265776045
23559900 14 18336259025644903146
27216 239 9223223049340997511
2871803 45 18412545388315575318
42 15 11312056552139217372
474229 33 18341332275501374526
4921388 177 16805614680792252747
58051976 378 18409731751103059286
6430166 295 8358260336886407762

> <PUBCHEM_SHAPE_MULTIPOLES>
276.37
10
1.59
0.94
9.7
0.36
0.01
0.58
2.03
-0.08
-0.13
-0.68
-0.06
0.39

> <PUBCHEM_SHAPE_SELFOVERLAP>
546.953

> <PUBCHEM_SHAPE_VOLUME>
164.3

> <PUBCHEM_COORDINATE_TYPE>
2
5
10

$$$$
