102844
  -OEChem-11232108433D

 29 28  0     1  0  0  0  0  0999 V2000
   -1.2602    0.3293    1.3734 O   0  0  0  0  0  0  0  0  0  0  0  0
   -1.0663   -1.1868   -0.4910 C   0  0  2  0  0  0  0  0  0  0  0  0
    0.3784   -1.6220   -0.2047 C   0  0  0  0  0  0  0  0  0  0  0  0
   -1.3603    0.1653    0.1573 C   0  0  0  0  0  0  0  0  0  0  0  0
   -2.0641   -2.2159    0.0362 C   0  0  0  0  0  0  0  0  0  0  0  0
   -1.7753    1.2857   -0.7816 C   0  0  0  0  0  0  0  0  0  0  0  0
    1.3837   -0.6332   -0.7307 C   0  0  0  0  0  0  0  0  0  0  0  0
    2.2519    0.1217   -0.0312 C   0  0  0  0  0  0  0  0  0  0  0  0
   -2.0779    2.5795   -0.0477 C   0  0  0  0  0  0  0  0  0  0  0  0
    3.1781    1.0722   -0.7424 C   0  0  0  0  0  0  0  0  0  0  0  0
    2.4120    0.1042    1.4625 C   0  0  0  0  0  0  0  0  0  0  0  0
   -1.2083   -1.0904   -1.5748 H   0  0  0  0  0  0  0  0  0  0  0  0
    0.5682   -2.5845   -0.6969 H   0  0  0  0  0  0  0  0  0  0  0  0
    0.5067   -1.8053    0.8658 H   0  0  0  0  0  0  0  0  0  0  0  0
   -3.0928   -1.8926   -0.1568 H   0  0  0  0  0  0  0  0  0  0  0  0
   -1.9159   -3.1856   -0.4502 H   0  0  0  0  0  0  0  0  0  0  0  0
   -1.9615   -2.3581    1.1178 H   0  0  0  0  0  0  0  0  0  0  0  0
   -0.9643    1.4519   -1.4981 H   0  0  0  0  0  0  0  0  0  0  0  0
   -2.6665    0.9597   -1.3280 H   0  0  0  0  0  0  0  0  0  0  0  0
    1.3778   -0.5307   -1.8155 H   0  0  0  0  0  0  0  0  0  0  0  0
   -2.3768    3.3585   -0.7558 H   0  0  0  0  0  0  0  0  0  0  0  0
   -1.1993    2.9348    0.5009 H   0  0  0  0  0  0  0  0  0  0  0  0
   -2.8906    2.4421    0.6733 H   0  0  0  0  0  0  0  0  0  0  0  0
    3.0417    1.0546   -1.8288 H   0  0  0  0  0  0  0  0  0  0  0  0
    3.0011    2.0981   -0.4029 H   0  0  0  0  0  0  0  0  0  0  0  0
    4.2212    0.8119   -0.5348 H   0  0  0  0  0  0  0  0  0  0  0  0
    2.2580    1.1108    1.8661 H   0  0  0  0  0  0  0  0  0  0  0  0
    1.7108   -0.5557    1.9758 H   0  0  0  0  0  0  0  0  0  0  0  0
    3.4237   -0.2205    1.7276 H   0  0  0  0  0  0  0  0  0  0  0  0
  1  4  2  0  0  0  0
  2  3  1  0  0  0  0
  2  4  1  0  0  0  0
  2  5  1  0  0  0  0
  2 12  1  0  0  0  0
  3  7  1  0  0  0  0
  3 13  1  0  0  0  0
  3 14  1  0  0  0  0
  4  6  1  0  0  0  0
  5 15  1  0  0  0  0
  5 16  1  0  0  0  0
  5 17  1  0  0  0  0
  6  9  1  0  0  0  0
  6 18  1  0  0  0  0
  6 19  1  0  0  0  0
  7  8  2  0  0  0  0
  7 20  1  0  0  0  0
  8 10  1  0  0  0  0
  8 11  1  0  0  0  0
  9 21  1  0  0  0  0
  9 22  1  0  0  0  0
  9 23  1  0  0  0  0
 10 24  1  0  0  0  0
 10 25  1  0  0  0  0
 10 26  1  0  0  0  0
 11 27  1  0  0  0  0
 11 28  1  0  0  0  0
 11 29  1  0  0  0  0
M  END
> <PUBCHEM_COMPOUND_CID>
102844

> <PUBCHEM_CONFORMER_RMSD>
0.6

> <PUBCHEM_CONFORMER_DIVERSEORDER>
18
62
81
85
54
89
21
73
59
92
91
67
72
70
76
65
117
84
25
97
105
87
5
78
28
60
79
26
24
115
22
118
66
35
8
30
40
49
74
116
7
111
107
99
101
98
56
82
71
63
4
38
33
29
19
108
86
2
95
102
10
113
77
53
16
1
93
104
96
75
9
13
55
51
57
114
39
88
44
52
15
94
43
83
48
68
42
100
45
112
32
50
80
36
27
69
6
31
41
3
90
106
58
14
46
37
109
110
20
61
119
103
17
12
23
64
34
11
47

> <PUBCHEM_MMFF94_PARTIAL_CHARGES>
10
1 -0.57
10 0.14
11 0.14
2 0.06
20 0.15
3 0.14
4 0.45
6 0.06
7 -0.29
8 -0.28

> <PUBCHEM_EFFECTIVE_ROTOR_COUNT>
4

> <PUBCHEM_PHARMACOPHORE_FEATURES>
4
1 1 acceptor
1 5 hydrophobe
1 9 hydrophobe
3 8 10 11 hydrophobe

> <PUBCHEM_HEAVY_ATOM_COUNT>
11

> <PUBCHEM_ATOM_DEF_STEREO_COUNT>
0

> <PUBCHEM_ATOM_UDEF_STEREO_COUNT>
1

> <PUBCHEM_BOND_DEF_STEREO_COUNT>
0

> <PUBCHEM_BOND_UDEF_STEREO_COUNT>
0

> <PUBCHEM_ISOTOPIC_ATOM_COUNT>
0

> <PUBCHEM_COMPONENT_COUNT>
1

> <PUBCHEM_CACTVS_TAUTO_COUNT>
3

> <PUBCHEM_CONFORMER_ID>
000191BC00000012

> <PUBCHEM_MMFF94_ENERGY>
8.8214

> <PUBCHEM_FEATURE_SELFOVERLAP>
20.297

> <PUBCHEM_SHAPE_FINGERPRINT>
100427 49 17835519705973117213
10149128 76 18267584598272342140
10857977 72 18055352693481890651
13380536 127 18261390095990670298
13839132 238 18339649949226623476
14251711 518 18187087307883537708
15775835 57 18335988631383129128
16945 1 18340477962992024863
19973954 147 18410293618592853214
20653085 51 18266746778964689309
20711985 344 18339355374562976739
21028194 46 18129656400769910510
21040471 1 18267020565928984014
21524375 3 18125713496464906421
21947302 44 18124589778180060029
22802520 49 17845394205523132564
22959321 45 18266478657067675633
230 275 18122618349531338836
23598294 1 18334574693589100899
25610 171 18268413806085696306
305870 269 17759788261303103705
369184 2 16805313426984741287
5084963 1 18271813457727108110
54338 74 18116146860397710263
81228 2 18411985797227137011

> <PUBCHEM_SHAPE_MULTIPOLES>
220.51
4.24
2.38
1.12
2.65
0.41
0.34
1.45
-0.06
-2.24
-0.26
0.43
0.12
-0.07

> <PUBCHEM_SHAPE_SELFOVERLAP>
409.217

> <PUBCHEM_SHAPE_VOLUME>
139.9

> <PUBCHEM_COORDINATE_TYPE>
2
5
10

$$$$
