102855
  -OEChem-11232108423D

 35 34  0     1  0  0  0  0  0999 V2000
   -1.1812    0.1935    0.1527 O   0  0  0  0  0  0  0  0  0  0  0  0
    0.0979    1.3402   -1.3866 O   0  0  0  0  0  0  0  0  0  0  0  0
   -3.6088    0.3267    0.3865 C   0  0  2  0  0  0  0  0  0  0  0  0
   -3.8523   -1.1895    0.2590 C   0  0  0  0  0  0  0  0  0  0  0  0
   -2.3636    0.8065   -0.3712 C   0  0  0  0  0  0  0  0  0  0  0  0
    2.5054    0.2593   -0.3128 C   0  0  0  0  0  0  0  0  0  0  0  0
    3.6561   -0.4691    0.3887 C   0  0  0  0  0  0  0  0  0  0  0  0
   -3.5060    0.6991    1.8701 C   0  0  0  0  0  0  0  0  0  0  0  0
    1.1370   -0.1483    0.2327 C   0  0  0  0  0  0  0  0  0  0  0  0
    5.0112   -0.0158   -0.1549 C   0  0  0  0  0  0  0  0  0  0  0  0
   -4.0428   -1.6559   -1.1771 C   0  0  0  0  0  0  0  0  0  0  0  0
   -0.0123    0.5550   -0.4550 C   0  0  0  0  0  0  0  0  0  0  0  0
    6.1595   -0.7018    0.5679 C   0  0  0  0  0  0  0  0  0  0  0  0
   -4.4776    0.8508   -0.0323 H   0  0  0  0  0  0  0  0  0  0  0  0
   -4.7526   -1.4542    0.8278 H   0  0  0  0  0  0  0  0  0  0  0  0
   -3.0227   -1.7485    0.7087 H   0  0  0  0  0  0  0  0  0  0  0  0
   -2.4506    0.5839   -1.4403 H   0  0  0  0  0  0  0  0  0  0  0  0
   -2.2725    1.8946   -0.2615 H   0  0  0  0  0  0  0  0  0  0  0  0
    2.6324    1.3432   -0.1983 H   0  0  0  0  0  0  0  0  0  0  0  0
    2.5454    0.0535   -1.3899 H   0  0  0  0  0  0  0  0  0  0  0  0
    3.6079   -0.2731    1.4667 H   0  0  0  0  0  0  0  0  0  0  0  0
    3.5450   -1.5514    0.2509 H   0  0  0  0  0  0  0  0  0  0  0  0
   -2.6783    0.1778    2.3624 H   0  0  0  0  0  0  0  0  0  0  0  0
   -4.4290    0.4374    2.3986 H   0  0  0  0  0  0  0  0  0  0  0  0
   -3.3492    1.7763    1.9902 H   0  0  0  0  0  0  0  0  0  0  0  0
    1.0886    0.0887    1.3018 H   0  0  0  0  0  0  0  0  0  0  0  0
    0.9968   -1.2275    0.1034 H   0  0  0  0  0  0  0  0  0  0  0  0
    5.1146    1.0696   -0.0410 H   0  0  0  0  0  0  0  0  0  0  0  0
    5.0751   -0.2371   -1.2267 H   0  0  0  0  0  0  0  0  0  0  0  0
   -4.8263   -1.0791   -1.6784 H   0  0  0  0  0  0  0  0  0  0  0  0
   -3.1187   -1.5666   -1.7554 H   0  0  0  0  0  0  0  0  0  0  0  0
   -4.3374   -2.7103   -1.1917 H   0  0  0  0  0  0  0  0  0  0  0  0
    6.1434   -0.4713    1.6379 H   0  0  0  0  0  0  0  0  0  0  0  0
    6.1039   -1.7886    0.4494 H   0  0  0  0  0  0  0  0  0  0  0  0
    7.1184   -0.3643    0.1622 H   0  0  0  0  0  0  0  0  0  0  0  0
  1  5  1  0  0  0  0
  1 12  1  0  0  0  0
  2 12  2  0  0  0  0
  3  4  1  0  0  0  0
  3  5  1  0  0  0  0
  3  8  1  0  0  0  0
  3 14  1  0  0  0  0
  4 11  1  0  0  0  0
  4 15  1  0  0  0  0
  4 16  1  0  0  0  0
  5 17  1  0  0  0  0
  5 18  1  0  0  0  0
  6  7  1  0  0  0  0
  6  9  1  0  0  0  0
  6 19  1  0  0  0  0
  6 20  1  0  0  0  0
  7 10  1  0  0  0  0
  7 21  1  0  0  0  0
  7 22  1  0  0  0  0
  8 23  1  0  0  0  0
  8 24  1  0  0  0  0
  8 25  1  0  0  0  0
  9 12  1  0  0  0  0
  9 26  1  0  0  0  0
  9 27  1  0  0  0  0
 10 13  1  0  0  0  0
 10 28  1  0  0  0  0
 10 29  1  0  0  0  0
 11 30  1  0  0  0  0
 11 31  1  0  0  0  0
 11 32  1  0  0  0  0
 13 33  1  0  0  0  0
 13 34  1  0  0  0  0
 13 35  1  0  0  0  0
M  END
> <PUBCHEM_COMPOUND_CID>
102855

> <PUBCHEM_CONFORMER_RMSD>
1

> <PUBCHEM_CONFORMER_DIVERSEORDER>
2
154
718
460
385
41
480
114
734
547
393
4
121
458
5
49
6
485
12
309
40
727
548
3
665
209
457
122
100
94
279
768
7
156
770
39
230
542
498
592
281
127
169
428
719
509
381
46
18
401
139
756
720
147
217
735
57
234
681
333
751
668
626
232
22
82
628
674
13
137
327
74
15
17
81
249
132
1
568
306
600
10
683
599
101
189
42
11
73
700
645
303
749
691
504
20
293
87
507
255
37
637
60
117
588
38
170
164
208
123
544
446
200
531
30
241
221
318
34
280
174
467
574
187

> <PUBCHEM_MMFF94_PARTIAL_CHARGES>
5
1 -0.43
12 0.66
2 -0.57
5 0.28
9 0.06

> <PUBCHEM_EFFECTIVE_ROTOR_COUNT>
8

> <PUBCHEM_PHARMACOPHORE_FEATURES>
5
1 11 hydrophobe
1 13 hydrophobe
1 2 acceptor
1 8 hydrophobe
4 6 7 9 10 hydrophobe

> <PUBCHEM_HEAVY_ATOM_COUNT>
13

> <PUBCHEM_ATOM_DEF_STEREO_COUNT>
0

> <PUBCHEM_ATOM_UDEF_STEREO_COUNT>
1

> <PUBCHEM_BOND_DEF_STEREO_COUNT>
0

> <PUBCHEM_BOND_UDEF_STEREO_COUNT>
0

> <PUBCHEM_ISOTOPIC_ATOM_COUNT>
0

> <PUBCHEM_COMPONENT_COUNT>
1

> <PUBCHEM_CACTVS_TAUTO_COUNT>
1

> <PUBCHEM_CONFORMER_ID>
000191C700000002

> <PUBCHEM_MMFF94_ENERGY>
5.4023

> <PUBCHEM_FEATURE_SELFOVERLAP>
25.374

> <PUBCHEM_SHAPE_FINGERPRINT>
10680689 15 18186802456750958141
10803635 8 14417848150692467666
10912923 1 18342461456567883736
11046707 91 18411134762136393807
12091667 2 17967814925455422288
12507557 5 16343984714900555177
12596602 18 17704068500101447554
13288520 33 18409448102973233895
13675066 3 16056882425042082268
13760787 5 17676496067932364628
14123238 8 18408886239767734266
1420 363 17240490187100028746
15501527 16 13470400085361499810
17834072 33 18342739663100901244
18186145 218 11887955449537003552
200 152 17821443556198131396
20724930 69 9655581824365695679
20828058 44 18202566176480574918
22485316 2 18334292033259262990
23402539 116 17967248680892813444
23402655 69 11314301746324778410
49783359 22 18341609313481514750
57265010 4 17846787295334903211

> <PUBCHEM_SHAPE_MULTIPOLES>
255.8
12.43
1.26
1.17
15.06
0.31
0.27
2.18
-4.37
-2.41
-0.28
-0.18
-0.17
-0.34

> <PUBCHEM_SHAPE_SELFOVERLAP>
466.658

> <PUBCHEM_SHAPE_VOLUME>
163.5

> <PUBCHEM_COORDINATE_TYPE>
2
5
10

$$$$
