103212
  -OEChem-11232108593D

 41 41  0     1  0  0  0  0  0999 V2000
   -5.0932    0.1707    0.8662 O   0  0  0  0  0  0  0  0  0  0  0  0
    1.0660    0.1360   -0.3070 C   0  0  1  0  0  0  0  0  0  0  0  0
    2.4021   -0.6255   -0.0486 C   0  0  0  0  0  0  0  0  0  0  0  0
   -0.2053   -0.5293    0.2057 C   0  0  0  0  0  0  0  0  0  0  0  0
    1.2742    1.5357    0.2875 C   0  0  0  0  0  0  0  0  0  0  0  0
    3.3797    0.5367   -0.0190 C   0  0  0  0  0  0  0  0  0  0  0  0
   -1.4482    0.2773   -0.1782 C   0  0  0  0  0  0  0  0  0  0  0  0
    2.7518    1.7057    0.1713 C   0  0  0  0  0  0  0  0  0  0  0  0
    2.4367   -1.3737    1.2936 C   0  0  0  0  0  0  0  0  0  0  0  0
    2.6800   -1.6106   -1.1923 C   0  0  0  0  0  0  0  0  0  0  0  0
   -2.7570   -0.3175    0.3812 C   0  0  1  0  0  0  0  0  0  0  0  0
    4.8538    0.3570   -0.1350 C   0  0  0  0  0  0  0  0  0  0  0  0
   -3.9498    0.6421    0.1511 C   0  0  1  0  0  0  0  0  0  0  0  0
   -3.0279   -1.7229   -0.1712 C   0  0  0  0  0  0  0  0  0  0  0  0
   -4.3628    0.8182   -1.3052 C   0  0  0  0  0  0  0  0  0  0  0  0
    0.9530    0.2643   -1.3959 H   0  0  0  0  0  0  0  0  0  0  0  0
   -0.1742   -0.6335    1.2965 H   0  0  0  0  0  0  0  0  0  0  0  0
   -0.2691   -1.5377   -0.2166 H   0  0  0  0  0  0  0  0  0  0  0  0
    0.9665    1.6077    1.3361 H   0  0  0  0  0  0  0  0  0  0  0  0
    0.7476    2.2974   -0.2958 H   0  0  0  0  0  0  0  0  0  0  0  0
   -1.5043    0.3452   -1.2713 H   0  0  0  0  0  0  0  0  0  0  0  0
   -1.3552    1.3020    0.1997 H   0  0  0  0  0  0  0  0  0  0  0  0
    3.2479    2.6616    0.2635 H   0  0  0  0  0  0  0  0  0  0  0  0
    3.4271   -1.8041    1.4825 H   0  0  0  0  0  0  0  0  0  0  0  0
    2.2022   -0.7121    2.1354 H   0  0  0  0  0  0  0  0  0  0  0  0
    1.7198   -2.2019    1.3074 H   0  0  0  0  0  0  0  0  0  0  0  0
    3.6236   -2.1462   -1.0378 H   0  0  0  0  0  0  0  0  0  0  0  0
    1.8842   -2.3598   -1.2675 H   0  0  0  0  0  0  0  0  0  0  0  0
    2.7481   -1.0982   -2.1590 H   0  0  0  0  0  0  0  0  0  0  0  0
   -2.6420   -0.4283    1.4686 H   0  0  0  0  0  0  0  0  0  0  0  0
    5.1169   -0.0516   -1.1154 H   0  0  0  0  0  0  0  0  0  0  0  0
    5.2229   -0.3241    0.6374 H   0  0  0  0  0  0  0  0  0  0  0  0
    5.3844    1.3081   -0.0195 H   0  0  0  0  0  0  0  0  0  0  0  0
   -3.7057    1.6282    0.5640 H   0  0  0  0  0  0  0  0  0  0  0  0
   -4.0089   -2.0918    0.1452 H   0  0  0  0  0  0  0  0  0  0  0  0
   -2.2872   -2.4399    0.1965 H   0  0  0  0  0  0  0  0  0  0  0  0
   -2.9942   -1.7383   -1.2653 H   0  0  0  0  0  0  0  0  0  0  0  0
   -5.2039    1.5178   -1.3733 H   0  0  0  0  0  0  0  0  0  0  0  0
   -3.5469    1.2097   -1.9182 H   0  0  0  0  0  0  0  0  0  0  0  0
   -4.7157   -0.1226   -1.7400 H   0  0  0  0  0  0  0  0  0  0  0  0
   -4.8466    0.1073    1.8046 H   0  0  0  0  0  0  0  0  0  0  0  0
  1 13  1  0  0  0  0
  1 41  1  0  0  0  0
  2  3  1  0  0  0  0
  2  4  1  0  0  0  0
  2  5  1  0  0  0  0
  2 16  1  0  0  0  0
  3  6  1  0  0  0  0
  3  9  1  0  0  0  0
  3 10  1  0  0  0  0
  4  7  1  0  0  0  0
  4 17  1  0  0  0  0
  4 18  1  0  0  0  0
  5  8  1  0  0  0  0
  5 19  1  0  0  0  0
  5 20  1  0  0  0  0
  6  8  2  0  0  0  0
  6 12  1  0  0  0  0
  7 11  1  0  0  0  0
  7 21  1  0  0  0  0
  7 22  1  0  0  0  0
  8 23  1  0  0  0  0
  9 24  1  0  0  0  0
  9 25  1  0  0  0  0
  9 26  1  0  0  0  0
 10 27  1  0  0  0  0
 10 28  1  0  0  0  0
 10 29  1  0  0  0  0
 11 13  1  0  0  0  0
 11 14  1  0  0  0  0
 11 30  1  0  0  0  0
 12 31  1  0  0  0  0
 12 32  1  0  0  0  0
 12 33  1  0  0  0  0
 13 15  1  0  0  0  0
 13 34  1  0  0  0  0
 14 35  1  0  0  0  0
 14 36  1  0  0  0  0
 14 37  1  0  0  0  0
 15 38  1  0  0  0  0
 15 39  1  0  0  0  0
 15 40  1  0  0  0  0
M  END
> <PUBCHEM_COMPOUND_CID>
103212

> <PUBCHEM_CONFORMER_RMSD>
0.6

> <PUBCHEM_CONFORMER_DIVERSEORDER>
11
101
1
72
118
77
132
26
109
133
23
75
119
10
34
37
128
107
70
33
76
49
65
95
121
93
29
122
78
54
15
53
100
4
115
71
16
131
116
110
103
41
45
17
6
114
60
99
21
96
113
87
40
127
94
81
134
2
129
92
46
32
48
64
73
31
105
102
63
80
108
13
83
43
28
69
120
85
8
123
106
22
90
59
55
47
91
79
111
130
27
62
56
38
117
9
44
125
3
18
74
126
30
68
124
98
67
25
82
97
5
36
50
52
89
84
112
39
86
7
51
14
66
20
24
104
12
61
19
57
42
88
35
58

> <PUBCHEM_MMFF94_PARTIAL_CHARGES>
9
1 -0.68
12 0.14
13 0.28
23 0.15
3 0.14
41 0.4
5 0.14
6 -0.28
8 -0.29

> <PUBCHEM_EFFECTIVE_ROTOR_COUNT>
4.6

> <PUBCHEM_PHARMACOPHORE_FEATURES>
5
1 1 acceptor
1 1 donor
1 14 hydrophobe
3 3 9 10 hydrophobe
5 2 3 5 6 8 rings

> <PUBCHEM_HEAVY_ATOM_COUNT>
15

> <PUBCHEM_ATOM_DEF_STEREO_COUNT>
0

> <PUBCHEM_ATOM_UDEF_STEREO_COUNT>
3

> <PUBCHEM_BOND_DEF_STEREO_COUNT>
0

> <PUBCHEM_BOND_UDEF_STEREO_COUNT>
0

> <PUBCHEM_ISOTOPIC_ATOM_COUNT>
0

> <PUBCHEM_COMPONENT_COUNT>
1

> <PUBCHEM_CACTVS_TAUTO_COUNT>
1

> <PUBCHEM_CONFORMER_ID>
0001932C0000000B

> <PUBCHEM_MMFF94_ENERGY>
33.3473

> <PUBCHEM_FEATURE_SELFOVERLAP>
25.372

> <PUBCHEM_SHAPE_FINGERPRINT>
10608611 8 18337668719409973357
11471102 20 18342174466747676388
116883 192 17985272876217689244
12346645 6 18131072623739722446
12500047 106 18186515531692922419
12932764 1 18113333107284588335
13296908 3 18335142007508804475
13675066 3 17530965770074315761
14144814 61 18343868805380842425
14252887 29 18341621390865987842
15375358 24 18410854364959142978
15442244 35 18127980697857378208
15775835 57 18187364332962613987
17834072 33 18201153351568320919
18186145 218 18408604755879400627
200 152 17561363989221698861
20279233 1 17894635854862808179
20645477 56 18333730226315820773
20645477 70 18271248231098414654
21709351 56 18337104682961624076
22485316 2 18187079550940076651
231179 274 18333447651489891588
23402539 116 17894904157433291252
23402655 69 18411981360124896220
23557571 272 18187085074468473261
23559900 14 18272936003422897582
2838139 119 16951989455805850364
300161 21 18272644649899742409
3060560 45 18131353012290193574
3545911 37 18341898506345300489
4072396 5 18338783560482527666
4214541 1 18411419535922209851
5104073 3 18339641255991387650
522135 26 18272655623166585382
542803 24 16917073256768224105
58051976 100 18341330102094961743
58051976 378 18202002122889318374
77779 3 18412267263502850907
8272917 22 17988934322820706847
9709674 26 18340493369119285127
9999458 23 17676206914271462356

> <PUBCHEM_SHAPE_MULTIPOLES>
302.82
9.86
1.64
1.01
7.15
0.18
-0.08
-1.27
-0.38
-0.67
-0.05
0.17
0.21
0.35

> <PUBCHEM_SHAPE_SELFOVERLAP>
594.272

> <PUBCHEM_SHAPE_VOLUME>
186.2

> <PUBCHEM_COORDINATE_TYPE>
2
5
10

$$$$
