103380
  -OEChem-11232109213D

 28 27  0     0  0  0  0  0  0999 V2000
   -0.3722   -0.7955   -0.2554 O   0  0  0  0  0  0  0  0  0  0  0  0
   -2.2689   -1.6354    0.7626 O   0  0  0  0  0  0  0  0  0  0  0  0
    1.7701   -1.8752   -0.4673 C   0  0  0  0  0  0  0  0  0  0  0  0
    0.3432   -1.9839    0.0566 C   0  0  0  0  0  0  0  0  0  0  0  0
    2.5115   -0.7347    0.1715 C   0  0  0  0  0  0  0  0  0  0  0  0
    3.7719    1.4320    0.1250 C   0  0  0  0  0  0  0  0  0  0  0  0
    3.0247    0.2986   -0.5126 C   0  0  0  0  0  0  0  0  0  0  0  0
    2.8333    2.5608    0.5218 C   0  0  0  0  0  0  0  0  0  0  0  0
   -1.6719   -0.7582    0.1588 C   0  0  0  0  0  0  0  0  0  0  0  0
   -2.2450    0.5413   -0.2528 C   0  0  0  0  0  0  0  0  0  0  0  0
   -3.5204    0.8313    0.0354 C   0  0  0  0  0  0  0  0  0  0  0  0
   -4.1761    2.1187   -0.3437 C   0  0  0  0  0  0  0  0  0  0  0  0
    2.3085   -2.8068   -0.2604 H   0  0  0  0  0  0  0  0  0  0  0  0
    1.7450   -1.7453   -1.5562 H   0  0  0  0  0  0  0  0  0  0  0  0
   -0.1508   -2.8402   -0.4176 H   0  0  0  0  0  0  0  0  0  0  0  0
    0.3474   -2.1365    1.1430 H   0  0  0  0  0  0  0  0  0  0  0  0
    2.6437   -0.7777    1.2500 H   0  0  0  0  0  0  0  0  0  0  0  0
    4.3130    1.0810    1.0119 H   0  0  0  0  0  0  0  0  0  0  0  0
    4.5283    1.8018   -0.5766 H   0  0  0  0  0  0  0  0  0  0  0  0
    2.8899    0.3483   -1.5901 H   0  0  0  0  0  0  0  0  0  0  0  0
    3.4004    3.3836    0.9688 H   0  0  0  0  0  0  0  0  0  0  0  0
    2.0927    2.2241    1.2552 H   0  0  0  0  0  0  0  0  0  0  0  0
    2.2968    2.9540   -0.3485 H   0  0  0  0  0  0  0  0  0  0  0  0
   -1.6117    1.2419   -0.7865 H   0  0  0  0  0  0  0  0  0  0  0  0
   -4.1423    0.1189    0.5710 H   0  0  0  0  0  0  0  0  0  0  0  0
   -5.0385    1.9218   -0.9878 H   0  0  0  0  0  0  0  0  0  0  0  0
   -3.4964    2.7891   -0.8792 H   0  0  0  0  0  0  0  0  0  0  0  0
   -4.5281    2.6358    0.5541 H   0  0  0  0  0  0  0  0  0  0  0  0
  1  4  1  0  0  0  0
  1  9  1  0  0  0  0
  2  9  2  0  0  0  0
  3  4  1  0  0  0  0
  3  5  1  0  0  0  0
  3 13  1  0  0  0  0
  3 14  1  0  0  0  0
  4 15  1  0  0  0  0
  4 16  1  0  0  0  0
  5  7  2  3  0  0  0
  5 17  1  0  0  0  0
  6  7  1  0  0  0  0
  6  8  1  0  0  0  0
  6 18  1  0  0  0  0
  6 19  1  0  0  0  0
  7 20  1  0  0  0  0
  8 21  1  0  0  0  0
  8 22  1  0  0  0  0
  8 23  1  0  0  0  0
  9 10  1  0  0  0  0
 10 11  2  3  0  0  0
 10 24  1  0  0  0  0
 11 12  1  0  0  0  0
 11 25  1  0  0  0  0
 12 26  1  0  0  0  0
 12 27  1  0  0  0  0
 12 28  1  0  0  0  0
M  END
> <PUBCHEM_COMPOUND_CID>
103380

> <PUBCHEM_CONFORMER_RMSD>
0.6

> <PUBCHEM_CONFORMER_DIVERSEORDER>
1
260
31
289
9
283
6
271
79
41
12
42
141
315
83
50
113
85
302
59
101
20
153
263
196
188
223
7
316
251
15
246
270
36
281
258
230
210
154
61
75
174
287
67
140
276
38
274
261
312
48
121
290
55
239
22
24
317
238
103
115
95
97
60
204
62
49
257
127
78
54
179
284
40
233
296
21
4
298
172
181
314
161
217
32
63
109
144
104
259
148
158
244
91
44
313
267
3
70
82
19
106
220
170
73
207
177
111
291
200
280
235
26
164
71
195
194
34
226
292
299
183
211
52
77
171
98
159
47
243
268
2
137
250
205
234
199
51
151
241
322
272
262
112
231
300
279
157
236
227
306
80
269
65
167
39
33
96
45
133
221
90
17
16
229
275
11
150
168
206
264
252
147
126
307
35
28
13
305
224
169
304
29
138
102
182
132
266
30
247
88
155
166
94
245
110
64
201
203
310
278
23
66
92
124
27
145
321
320
214
209
191
212
156
162
286
149
295
105
318
122
10
120
198
46
308
282
256
186
249
57
163
213
37
76
297
8
192
69
232
84
87
178
107
225
228
53
43
160
86
173
58
99
119
190
89
319
202
301
176
125
303
193
100
277
128
117
273
294
5
189
285
219
118
72
254
253
25
222
116
311
131
129
93
152
130
218
175
134
309
136
123
288
215
81
14
265
139
187
293
56
18
180
216
146
114
185
74
255
237
135
165
240
142
242
197
68
143
184
108
248
208

> <PUBCHEM_MMFF94_PARTIAL_CHARGES>
15
1 -0.43
10 -0.14
11 -0.29
12 0.14
17 0.15
2 -0.57
20 0.15
24 0.15
25 0.15
3 0.14
4 0.28
5 -0.29
6 0.14
7 -0.29
9 0.71

> <PUBCHEM_EFFECTIVE_ROTOR_COUNT>
6

> <PUBCHEM_PHARMACOPHORE_FEATURES>
3
1 12 hydrophobe
1 2 acceptor
1 8 hydrophobe

> <PUBCHEM_HEAVY_ATOM_COUNT>
12

> <PUBCHEM_ATOM_DEF_STEREO_COUNT>
0

> <PUBCHEM_ATOM_UDEF_STEREO_COUNT>
0

> <PUBCHEM_BOND_DEF_STEREO_COUNT>
0

> <PUBCHEM_BOND_UDEF_STEREO_COUNT>
2

> <PUBCHEM_ISOTOPIC_ATOM_COUNT>
0

> <PUBCHEM_COMPONENT_COUNT>
1

> <PUBCHEM_CACTVS_TAUTO_COUNT>
1

> <PUBCHEM_CONFORMER_ID>
000193D400000001

> <PUBCHEM_MMFF94_ENERGY>
7.0342

> <PUBCHEM_FEATURE_SELFOVERLAP>
15.223

> <PUBCHEM_SHAPE_FINGERPRINT>
10608611 8 18409450271546563967
12006461 19 9079113366880335149
122479 349 18335422348513870163
13618510 140 18341613741434547936
13897977 150 18411135839957037117
14123255 52 18340766043791966924
14252887 29 12829493606411094754
17834072 32 18337675342518998044
1798214 55 18412824720161880920
18186145 218 18059591225318584138
20281475 54 9511170880852915791
20304884 271 18410855481698086746
20449540 30 18201726192878949723
20606313 2 18268990895298198750
20621476 13 18411974763029522204
20671657 1 18338517409100387382
20767249 462 18408318908473125388
22096605 113 18413385415146409687
22959321 54 18341333292891704585
23503958 25 18191605222520503776
23590187 32 18264492965228651876
43658 37 18271233993423980005
8050 44 18410852183110468924
8199 26 18411139173041738324
94968 8 9871458838152352956

> <PUBCHEM_SHAPE_MULTIPOLES>
235.22
7.81
2.79
0.73
3.08
0.7
-0.01
6.05
0.26
-0.87
-0.23
-0.03
-0.01
0.87

> <PUBCHEM_SHAPE_SELFOVERLAP>
437.982

> <PUBCHEM_SHAPE_VOLUME>
147

> <PUBCHEM_COORDINATE_TYPE>
2
5
10

$$$$
