103381
  -OEChem-11232109043D

 39 39  0     1  0  0  0  0  0999 V2000
    3.5361   -1.1618   -1.1708 O   0  0  0  0  0  0  0  0  0  0  0  0
   -1.6229   -0.8683    0.6757 C   0  0  0  0  0  0  0  0  0  0  0  0
   -1.0539    0.5938    0.6047 C   0  0  1  0  0  0  0  0  0  0  0  0
    0.3777    0.7263    1.1513 C   0  0  1  0  0  0  0  0  0  0  0  0
   -1.0024   -1.7206   -0.4557 C   0  0  0  0  0  0  0  0  0  0  0  0
   -1.0956    1.1604   -0.8108 C   0  0  0  0  0  0  0  0  0  0  0  0
   -1.2224   -1.1277   -1.8486 C   0  0  0  0  0  0  0  0  0  0  0  0
   -3.1645   -0.8348    0.5294 C   0  0  0  0  0  0  0  0  0  0  0  0
   -1.3187   -1.5441    2.0281 C   0  0  0  0  0  0  0  0  0  0  0  0
    1.3978   -0.0346    0.2911 C   0  0  0  0  0  0  0  0  0  0  0  0
   -1.1659    0.3686   -1.8957 C   0  0  0  0  0  0  0  0  0  0  0  0
    0.7555    2.2043    1.2326 C   0  0  0  0  0  0  0  0  0  0  0  0
   -1.0925    2.6583   -0.9463 C   0  0  0  0  0  0  0  0  0  0  0  0
    2.8408    0.1350    0.7620 C   0  0  0  0  0  0  0  0  0  0  0  0
    3.8308   -0.5548   -0.1469 C   0  0  0  0  0  0  0  0  0  0  0  0
   -1.7133    1.2078    1.2357 H   0  0  0  0  0  0  0  0  0  0  0  0
    0.4178    0.3469    2.1787 H   0  0  0  0  0  0  0  0  0  0  0  0
   -1.5321   -2.6871   -0.4564 H   0  0  0  0  0  0  0  0  0  0  0  0
    0.0185   -2.0575   -0.3308 H   0  0  0  0  0  0  0  0  0  0  0  0
   -2.1983   -1.4452   -2.2361 H   0  0  0  0  0  0  0  0  0  0  0  0
   -0.4699   -1.5375   -2.5324 H   0  0  0  0  0  0  0  0  0  0  0  0
   -3.4929   -0.3475   -0.3935 H   0  0  0  0  0  0  0  0  0  0  0  0
   -3.5834   -1.8478    0.5311 H   0  0  0  0  0  0  0  0  0  0  0  0
   -3.6216   -0.2893    1.3632 H   0  0  0  0  0  0  0  0  0  0  0  0
   -1.6433   -0.9153    2.8647 H   0  0  0  0  0  0  0  0  0  0  0  0
   -1.8451   -2.5023    2.1130 H   0  0  0  0  0  0  0  0  0  0  0  0
   -0.2545   -1.7642    2.1566 H   0  0  0  0  0  0  0  0  0  0  0  0
    1.2626   -1.0994    0.4255 H   0  0  0  0  0  0  0  0  0  0  0  0
    1.3373    0.2150   -0.7711 H   0  0  0  0  0  0  0  0  0  0  0  0
   -1.2091    0.8196   -2.8840 H   0  0  0  0  0  0  0  0  0  0  0  0
    1.1944    2.5985    0.3143 H   0  0  0  0  0  0  0  0  0  0  0  0
   -0.0693    2.8362    1.5750 H   0  0  0  0  0  0  0  0  0  0  0  0
    1.5355    2.3289    1.9956 H   0  0  0  0  0  0  0  0  0  0  0  0
   -0.1003    3.0545   -1.1686 H   0  0  0  0  0  0  0  0  0  0  0  0
   -1.5191    3.1553   -0.0707 H   0  0  0  0  0  0  0  0  0  0  0  0
   -1.7329    2.9539   -1.7874 H   0  0  0  0  0  0  0  0  0  0  0  0
    3.1373    1.1881    0.7777 H   0  0  0  0  0  0  0  0  0  0  0  0
    2.9685   -0.2713    1.7712 H   0  0  0  0  0  0  0  0  0  0  0  0
    4.8852   -0.4754    0.1701 H   0  0  0  0  0  0  0  0  0  0  0  0
  1 15  2  0  0  0  0
  2  3  1  0  0  0  0
  2  5  1  0  0  0  0
  2  8  1  0  0  0  0
  2  9  1  0  0  0  0
  3  4  1  0  0  0  0
  3  6  1  0  0  0  0
  3 16  1  0  0  0  0
  4 10  1  0  0  0  0
  4 12  1  0  0  0  0
  4 17  1  0  0  0  0
  5  7  1  0  0  0  0
  5 18  1  0  0  0  0
  5 19  1  0  0  0  0
  6 11  2  0  0  0  0
  6 13  1  0  0  0  0
  7 11  1  0  0  0  0
  7 20  1  0  0  0  0
  7 21  1  0  0  0  0
  8 22  1  0  0  0  0
  8 23  1  0  0  0  0
  8 24  1  0  0  0  0
  9 25  1  0  0  0  0
  9 26  1  0  0  0  0
  9 27  1  0  0  0  0
 10 14  1  0  0  0  0
 10 28  1  0  0  0  0
 10 29  1  0  0  0  0
 11 30  1  0  0  0  0
 12 31  1  0  0  0  0
 12 32  1  0  0  0  0
 12 33  1  0  0  0  0
 13 34  1  0  0  0  0
 13 35  1  0  0  0  0
 13 36  1  0  0  0  0
 14 15  1  0  0  0  0
 14 37  1  0  0  0  0
 14 38  1  0  0  0  0
 15 39  1  0  0  0  0
M  END
> <PUBCHEM_COMPOUND_CID>
103381

> <PUBCHEM_CONFORMER_RMSD>
0.6

> <PUBCHEM_CONFORMER_DIVERSEORDER>
1
19
22
12
17
3
16
15
2
5
20
21
14
13
8
9
7
11
18
6
10
4

> <PUBCHEM_MMFF94_PARTIAL_CHARGES>
10
1 -0.57
11 -0.29
13 0.14
14 0.06
15 0.45
3 0.14
30 0.15
39 0.06
6 -0.28
7 0.14

> <PUBCHEM_EFFECTIVE_ROTOR_COUNT>
4.8

> <PUBCHEM_PHARMACOPHORE_FEATURES>
4
1 1 acceptor
1 12 hydrophobe
3 2 8 9 hydrophobe
6 2 3 5 6 7 11 rings

> <PUBCHEM_HEAVY_ATOM_COUNT>
15

> <PUBCHEM_ATOM_DEF_STEREO_COUNT>
0

> <PUBCHEM_ATOM_UDEF_STEREO_COUNT>
2

> <PUBCHEM_BOND_DEF_STEREO_COUNT>
0

> <PUBCHEM_BOND_UDEF_STEREO_COUNT>
0

> <PUBCHEM_ISOTOPIC_ATOM_COUNT>
0

> <PUBCHEM_COMPONENT_COUNT>
1

> <PUBCHEM_CACTVS_TAUTO_COUNT>
2

> <PUBCHEM_CONFORMER_ID>
000193D500000001

> <PUBCHEM_MMFF94_ENERGY>
47.3139

> <PUBCHEM_FEATURE_SELFOVERLAP>
20.297

> <PUBCHEM_SHAPE_FINGERPRINT>
12173636 292 17822568283695115852
12423570 1 13781737398508557117
13024252 1 17894630331534852255
14817 1 11938532224163381169
14863182 85 15156477316054677250
15076042 46 15338851913857277314
15775835 57 14779536843046123550
16945 1 18194652978600382253
19837323 101 17970047981404307764
20645476 183 17825953620015130288
21330990 113 18337682905966358031
21524375 3 17686037414921476588
22802520 49 18337374028792701072
228727 97 14779539119077954027
23236772 104 14490468673145793375
23557571 272 17895470431923858828
2748010 2 18045483464288900865
353137 74 13768197333054853798
430814 3 17172346712074644709
53812654 72 17059482071184925901
576247 118 18115030843083904904
598444 67 18339928121189048647
81228 2 18260822696182507937
84936 31 17762070130204213032

> <PUBCHEM_SHAPE_MULTIPOLES>
302.82
4.42
2.22
1.86
5.06
1.28
-0.26
-2.06
-0.49
-0.73
0.05
-0.5
-0.26
0.99

> <PUBCHEM_SHAPE_SELFOVERLAP>
599.43

> <PUBCHEM_SHAPE_VOLUME>
179.3

> <PUBCHEM_COORDINATE_TYPE>
2
5
10

$$$$
