103377
  -OEChem-11232109043D

 41 42  0     1  0  0  0  0  0999 V2000
   -2.2445   -1.1278    0.1047 O   0  0  0  0  0  0  0  0  0  0  0  0
   -4.0399    0.0568    0.9610 O   0  0  0  0  0  0  0  0  0  0  0  0
    0.1551   -0.6203    0.3045 C   0  0  1  0  0  0  0  0  0  0  0  0
    1.2180    0.5607    0.4224 C   0  0  2  0  0  0  0  0  0  0  0  0
   -1.3132   -0.0726    0.3513 C   0  0  1  0  0  0  0  0  0  0  0  0
    0.8432    1.7131   -0.5571 C   0  0  0  0  0  0  0  0  0  0  0  0
   -1.6411    1.1452   -0.5362 C   0  0  1  0  0  0  0  0  0  0  0  0
    0.4109   -1.4217   -1.0032 C   0  0  0  0  0  0  0  0  0  0  0  0
   -0.5817    2.2366   -0.3877 C   0  0  0  0  0  0  0  0  0  0  0  0
    2.6438    0.0894    0.0462 C   0  0  0  0  0  0  0  0  0  0  0  0
    0.2891   -1.6305    1.4871 C   0  0  0  0  0  0  0  0  0  0  0  0
    1.2371    1.1286    1.8680 C   0  0  0  0  0  0  0  0  0  0  0  0
    1.8188   -2.0069   -1.0826 C   0  0  0  0  0  0  0  0  0  0  0  0
    2.8754   -1.0602   -0.6150 C   0  0  0  0  0  0  0  0  0  0  0  0
   -1.9316    0.8382   -2.0094 C   0  0  0  0  0  0  0  0  0  0  0  0
    3.8177    0.9631    0.4180 C   0  0  0  0  0  0  0  0  0  0  0  0
   -3.5569   -0.7917    0.2277 C   0  0  0  0  0  0  0  0  0  0  0  0
   -1.4873    0.2534    1.3868 H   0  0  0  0  0  0  0  0  0  0  0  0
    0.9862    1.3911   -1.5962 H   0  0  0  0  0  0  0  0  0  0  0  0
    1.5243    2.5630   -0.4203 H   0  0  0  0  0  0  0  0  0  0  0  0
   -2.5705    1.5958   -0.1648 H   0  0  0  0  0  0  0  0  0  0  0  0
    0.2761   -0.7821   -1.8772 H   0  0  0  0  0  0  0  0  0  0  0  0
   -0.3125   -2.2388   -1.1142 H   0  0  0  0  0  0  0  0  0  0  0  0
   -0.6821    2.7042    0.5993 H   0  0  0  0  0  0  0  0  0  0  0  0
   -0.7608    3.0378   -1.1154 H   0  0  0  0  0  0  0  0  0  0  0  0
    1.3217   -1.9565    1.6451 H   0  0  0  0  0  0  0  0  0  0  0  0
   -0.0579   -1.1965    2.4314 H   0  0  0  0  0  0  0  0  0  0  0  0
   -0.3146   -2.5283    1.3102 H   0  0  0  0  0  0  0  0  0  0  0  0
    1.7982    2.0691    1.9231 H   0  0  0  0  0  0  0  0  0  0  0  0
    0.2342    1.3449    2.2466 H   0  0  0  0  0  0  0  0  0  0  0  0
    1.7093    0.4319    2.5703 H   0  0  0  0  0  0  0  0  0  0  0  0
    2.0249   -2.2910   -2.1213 H   0  0  0  0  0  0  0  0  0  0  0  0
    1.8821   -2.9274   -0.4907 H   0  0  0  0  0  0  0  0  0  0  0  0
    3.8981   -1.3511   -0.8440 H   0  0  0  0  0  0  0  0  0  0  0  0
   -2.4102    1.7070   -2.4775 H   0  0  0  0  0  0  0  0  0  0  0  0
   -1.0261    0.6432   -2.5865 H   0  0  0  0  0  0  0  0  0  0  0  0
   -2.6101   -0.0077   -2.1437 H   0  0  0  0  0  0  0  0  0  0  0  0
    3.9457    1.0005    1.5041 H   0  0  0  0  0  0  0  0  0  0  0  0
    3.6836    1.9818    0.0434 H   0  0  0  0  0  0  0  0  0  0  0  0
    4.7583    0.5910   -0.0034 H   0  0  0  0  0  0  0  0  0  0  0  0
   -4.1548   -1.5083   -0.3562 H   0  0  0  0  0  0  0  0  0  0  0  0
  1  5  1  0  0  0  0
  1 17  1  0  0  0  0
  2 17  2  0  0  0  0
  3  4  1  0  0  0  0
  3  5  1  0  0  0  0
  3  8  1  0  0  0  0
  3 11  1  0  0  0  0
  4  6  1  0  0  0  0
  4 10  1  0  0  0  0
  4 12  1  0  0  0  0
  5  7  1  0  0  0  0
  5 18  1  0  0  0  0
  6  9  1  0  0  0  0
  6 19  1  0  0  0  0
  6 20  1  0  0  0  0
  7  9  1  0  0  0  0
  7 15  1  0  0  0  0
  7 21  1  0  0  0  0
  8 13  1  0  0  0  0
  8 22  1  0  0  0  0
  8 23  1  0  0  0  0
  9 24  1  0  0  0  0
  9 25  1  0  0  0  0
 10 14  2  0  0  0  0
 10 16  1  0  0  0  0
 11 26  1  0  0  0  0
 11 27  1  0  0  0  0
 11 28  1  0  0  0  0
 12 29  1  0  0  0  0
 12 30  1  0  0  0  0
 12 31  1  0  0  0  0
 13 14  1  0  0  0  0
 13 32  1  0  0  0  0
 13 33  1  0  0  0  0
 14 34  1  0  0  0  0
 15 35  1  0  0  0  0
 15 36  1  0  0  0  0
 15 37  1  0  0  0  0
 16 38  1  0  0  0  0
 16 39  1  0  0  0  0
 16 40  1  0  0  0  0
 17 41  1  0  0  0  0
M  END
> <PUBCHEM_COMPOUND_CID>
103377

> <PUBCHEM_CONFORMER_RMSD>
0.6

> <PUBCHEM_CONFORMER_DIVERSEORDER>
2
6
17
18
13
9
5
11
14
7
21
8
16
12
4
3
20
1
19
10
15

> <PUBCHEM_MMFF94_PARTIAL_CHARGES>
11
1 -0.43
10 -0.28
13 0.14
14 -0.29
16 0.14
17 0.66
2 -0.57
34 0.15
4 0.14
41 0.06
5 0.28

> <PUBCHEM_EFFECTIVE_ROTOR_COUNT>
3.2

> <PUBCHEM_PHARMACOPHORE_FEATURES>
3
1 2 acceptor
6 3 4 5 6 7 9 rings
6 3 4 8 10 13 14 rings

> <PUBCHEM_HEAVY_ATOM_COUNT>
17

> <PUBCHEM_ATOM_DEF_STEREO_COUNT>
0

> <PUBCHEM_ATOM_UDEF_STEREO_COUNT>
4

> <PUBCHEM_BOND_DEF_STEREO_COUNT>
0

> <PUBCHEM_BOND_UDEF_STEREO_COUNT>
0

> <PUBCHEM_ISOTOPIC_ATOM_COUNT>
0

> <PUBCHEM_COMPONENT_COUNT>
1

> <PUBCHEM_CACTVS_TAUTO_COUNT>
1

> <PUBCHEM_CONFORMER_ID>
000193D100000002

> <PUBCHEM_MMFF94_ENERGY>
58.3737

> <PUBCHEM_FEATURE_SELFOVERLAP>
15.262

> <PUBCHEM_SHAPE_FINGERPRINT>
10064457 181 17417248874134368351
10353120 184 18186806876345963845
10863032 1 17988090975906182409
11132069 177 18335420213783138385
12423570 1 18268142235556680098
13299463 15 18335144146043711254
13464513 79 18261960772790821251
144361 1 17985237751832432100
14614273 12 17531237310612342469
14761567 1 17756134601359704095
15219456 202 18340204102828585364
15501101 241 18272658943197397689
15775835 57 17704074040012770086
15881359 60 17977353312784396949
16945 1 18059277842871569392
17844478 74 18410859828183878381
20344682 1 18339926016908092852
20511035 2 17686348967722563168
20588541 1 18340774831184213426
21041028 32 17773040760799299520
21501502 16 18268436728579238944
22344851 262 18129099103062165422
22344851 341 18192993716775225530
22802520 49 18195808453572923620
23402539 116 18260537965936636486
23419403 2 17556837158512227562
23557571 272 18187652366570566252
23559900 14 17834389026696920298
2748010 2 18336538309571042965
3286 77 17845650481515221699
5084963 1 18409164449925773888
528886 8 17988922296965038218
77492 1 15985099704209910262
81228 2 18042704809469459553

> <PUBCHEM_SHAPE_MULTIPOLES>
338.11
5.07
2.08
1.48
1.68
0.11
-0.02
-0.3
-0.48
-0.45
0.3
0.18
0.01
0.91

> <PUBCHEM_SHAPE_SELFOVERLAP>
695.165

> <PUBCHEM_SHAPE_VOLUME>
191.5

> <PUBCHEM_COORDINATE_TYPE>
2
5
10

$$$$
