103401
  -OEChem-11232109483D

 29 30  0     1  0  0  0  0  0999 V2000
    2.8210   -1.0230    0.1397 N   0  0  0  0  0  0  0  0  0  0  0  0
   -2.7279   -0.0916   -0.4656 C   0  0  1  0  0  0  0  0  0  0  0  0
   -1.2643   -0.3261   -0.3060 C   0  0  0  0  0  0  0  0  0  0  0  0
   -3.3752    0.7252    0.6866 C   0  0  0  0  0  0  0  0  0  0  0  0
   -3.0491    0.6122   -1.8015 C   0  0  0  0  0  0  0  0  0  0  0  0
   -0.3850    0.7507   -0.2367 C   0  0  0  0  0  0  0  0  0  0  0  0
   -0.7693   -1.6219   -0.2257 C   0  0  0  0  0  0  0  0  0  0  0  0
    0.9950    0.5332   -0.0865 C   0  0  0  0  0  0  0  0  0  0  0  0
   -3.1779    0.0750    2.0506 C   0  0  0  0  0  0  0  0  0  0  0  0
    1.5046   -0.7795   -0.0042 C   0  0  0  0  0  0  0  0  0  0  0  0
    0.6029   -1.8377   -0.0764 C   0  0  0  0  0  0  0  0  0  0  0  0
    1.9024    1.5989   -0.0141 C   0  0  0  0  0  0  0  0  0  0  0  0
    3.2594    1.3512    0.1343 C   0  0  0  0  0  0  0  0  0  0  0  0
    3.6634    0.0334    0.2056 C   0  0  0  0  0  0  0  0  0  0  0  0
   -3.2429   -1.0620   -0.4952 H   0  0  0  0  0  0  0  0  0  0  0  0
   -4.4520    0.8197    0.4983 H   0  0  0  0  0  0  0  0  0  0  0  0
   -2.9706    1.7441    0.7168 H   0  0  0  0  0  0  0  0  0  0  0  0
   -2.6304    0.0530   -2.6458 H   0  0  0  0  0  0  0  0  0  0  0  0
   -4.1324    0.6799   -1.9499 H   0  0  0  0  0  0  0  0  0  0  0  0
   -2.6430    1.6288   -1.8383 H   0  0  0  0  0  0  0  0  0  0  0  0
   -0.7614    1.7698   -0.2976 H   0  0  0  0  0  0  0  0  0  0  0  0
   -1.4346   -2.4797   -0.2767 H   0  0  0  0  0  0  0  0  0  0  0  0
   -3.7240    0.6374    2.8149 H   0  0  0  0  0  0  0  0  0  0  0  0
   -3.5555   -0.9524    2.0537 H   0  0  0  0  0  0  0  0  0  0  0  0
   -2.1239    0.0585    2.3433 H   0  0  0  0  0  0  0  0  0  0  0  0
    0.9655   -2.8622   -0.0158 H   0  0  0  0  0  0  0  0  0  0  0  0
    1.5564    2.6283   -0.0730 H   0  0  0  0  0  0  0  0  0  0  0  0
    3.9747    2.1631    0.1920 H   0  0  0  0  0  0  0  0  0  0  0  0
    4.7118   -0.2212    0.3215 H   0  0  0  0  0  0  0  0  0  0  0  0
  1 10  1  0  0  0  0
  1 14  2  0  0  0  0
  2  3  1  0  0  0  0
  2  4  1  0  0  0  0
  2  5  1  0  0  0  0
  2 15  1  0  0  0  0
  3  6  2  0  0  0  0
  3  7  1  0  0  0  0
  4  9  1  0  0  0  0
  4 16  1  0  0  0  0
  4 17  1  0  0  0  0
  5 18  1  0  0  0  0
  5 19  1  0  0  0  0
  5 20  1  0  0  0  0
  6  8  1  0  0  0  0
  6 21  1  0  0  0  0
  7 11  2  0  0  0  0
  7 22  1  0  0  0  0
  8 10  2  0  0  0  0
  8 12  1  0  0  0  0
  9 23  1  0  0  0  0
  9 24  1  0  0  0  0
  9 25  1  0  0  0  0
 10 11  1  0  0  0  0
 11 26  1  0  0  0  0
 12 13  2  0  0  0  0
 12 27  1  0  0  0  0
 13 14  1  0  0  0  0
 13 28  1  0  0  0  0
 14 29  1  0  0  0  0
M  END
> <PUBCHEM_COMPOUND_CID>
103401

> <PUBCHEM_CONFORMER_RMSD>
0.6

> <PUBCHEM_CONFORMER_DIVERSEORDER>
1
8
4
3
7
5
6
2

> <PUBCHEM_MMFF94_PARTIAL_CHARGES>
16
1 -0.62
10 0.31
11 -0.15
12 -0.15
13 -0.15
14 0.16
2 0.14
21 0.15
22 0.15
26 0.15
27 0.15
28 0.15
29 0.15
3 -0.14
6 -0.15
7 -0.15

> <PUBCHEM_EFFECTIVE_ROTOR_COUNT>
2

> <PUBCHEM_PHARMACOPHORE_FEATURES>
5
1 1 acceptor
1 5 hydrophobe
1 9 hydrophobe
6 1 8 10 12 13 14 rings
6 3 6 7 8 10 11 rings

> <PUBCHEM_HEAVY_ATOM_COUNT>
14

> <PUBCHEM_ATOM_DEF_STEREO_COUNT>
0

> <PUBCHEM_ATOM_UDEF_STEREO_COUNT>
1

> <PUBCHEM_BOND_DEF_STEREO_COUNT>
0

> <PUBCHEM_BOND_UDEF_STEREO_COUNT>
0

> <PUBCHEM_ISOTOPIC_ATOM_COUNT>
0

> <PUBCHEM_COMPONENT_COUNT>
1

> <PUBCHEM_CACTVS_TAUTO_COUNT>
1

> <PUBCHEM_CONFORMER_ID>
000193E900000001

> <PUBCHEM_MMFF94_ENERGY>
36.2184

> <PUBCHEM_FEATURE_SELFOVERLAP>
25.403

> <PUBCHEM_SHAPE_FINGERPRINT>
10219947 1 18335700533397926132
10465860 228 17843983463000045267
10980938 120 18410007732737561262
11132069 177 18339911689034356336
11471102 20 18410284783591924260
11471102 22 18261125049195106907
11543360 7 15482101803736365928
11578080 2 12902386983831732959
124424 183 17604695690753324006
12491281 212 17561090215036980083
12500047 106 16081356415694075401
12932764 1 18040713671120533846
13296908 3 17676486137841316920
13380535 21 18264781011452187958
13380535 76 18340197579069038638
13581323 91 15864076489516133963
13583140 156 17023168461936644648
13705890 14 13110962054592054220
14144814 61 18342736329710368400
14289901 80 16081094787487173360
14325111 11 18410851100826092268
15219456 202 18040995107642836605
15309172 13 18410295813205226627
15653759 3 17313106336859902905
15775835 57 17846504707824642841
16945 1 18411134697617029806
17844478 74 17894354375607058269
18175812 5 17603584123252562197
18186145 218 18342740719362071924
18219364 16 18334856125758420041
18534176 82 13902189275088047403
19026448 4 16732982007570393086
19026448 5 16702016470192611998
19049666 15 17532930494110510075
19422 9 17704351061061058639
200 152 18200865279980987471
20279233 1 17603301540459125507
20645477 70 18264194842531291198
20715346 28 17894630353020199421
21501502 16 18266455602042147678
21639500 275 18341878719209681773
2334 1 18122057865121130646
23402539 116 17132108043983457676
23402655 69 18268972259757056861
23493267 7 17168135685608889101
23557571 272 14476668737308025459
23559900 14 16588299420145206842
25 1 18410007719673272526
2748010 2 18265895933364651822
528886 8 18339350950862543898
63268167 104 18413099563386832881
633830 44 18131361812193106988
77492 1 17704067374302641365
81228 2 17686055397991749354

> <PUBCHEM_SHAPE_MULTIPOLES>
283.13
6.27
1.6
1.22
0.16
0.36
-0.21
-1.76
-0.92
0.79
0.07
-1.83
-0.2
0.05

> <PUBCHEM_SHAPE_SELFOVERLAP>
603.572

> <PUBCHEM_SHAPE_VOLUME>
158.2

> <PUBCHEM_COORDINATE_TYPE>
2
5
10

$$$$
