103404
  -OEChem-11232109243D

 20 20  0     0  0  0  0  0  0999 V2000
   -1.8652    0.0110    0.1443 O   0  0  0  0  0  0  0  0  0  0  0  0
    1.0174   -1.2170   -0.1772 N   0  0  0  0  0  0  0  0  0  0  0  0
    2.3706    1.2028    0.2469 N   0  0  0  0  0  0  0  0  0  0  0  0
   -0.9534   -0.0283   -0.9476 C   0  0  0  0  0  0  0  0  0  0  0  0
    0.4426   -0.0243   -0.4295 C   0  0  0  0  0  0  0  0  0  0  0  0
   -3.2132    0.0087   -0.3037 C   0  0  0  0  0  0  0  0  0  0  0  0
   -4.1324    0.0512    0.8983 C   0  0  0  0  0  0  0  0  0  0  0  0
    1.1072    1.1643   -0.2211 C   0  0  0  0  0  0  0  0  0  0  0  0
    2.2808   -1.1785    0.2905 C   0  0  0  0  0  0  0  0  0  0  0  0
    2.9454    0.0101    0.4990 C   0  0  0  0  0  0  0  0  0  0  0  0
   -1.1191    0.8309   -1.6091 H   0  0  0  0  0  0  0  0  0  0  0  0
   -1.1225   -0.9403   -1.5332 H   0  0  0  0  0  0  0  0  0  0  0  0
   -3.3949    0.8840   -0.9375 H   0  0  0  0  0  0  0  0  0  0  0  0
   -3.4092   -0.8988   -0.8857 H   0  0  0  0  0  0  0  0  0  0  0  0
   -5.1812    0.0507    0.5888 H   0  0  0  0  0  0  0  0  0  0  0  0
   -3.9558   -0.8112    1.5496 H   0  0  0  0  0  0  0  0  0  0  0  0
   -3.9415    0.9472    1.4983 H   0  0  0  0  0  0  0  0  0  0  0  0
    0.6531    2.1281   -0.4191 H   0  0  0  0  0  0  0  0  0  0  0  0
    2.7434   -2.1364    0.4934 H   0  0  0  0  0  0  0  0  0  0  0  0
    3.9605    0.0401    0.8750 H   0  0  0  0  0  0  0  0  0  0  0  0
  1  4  1  0  0  0  0
  1  6  1  0  0  0  0
  2  5  2  0  0  0  0
  2  9  1  0  0  0  0
  3  8  2  0  0  0  0
  3 10  1  0  0  0  0
  4  5  1  0  0  0  0
  4 11  1  0  0  0  0
  4 12  1  0  0  0  0
  5  8  1  0  0  0  0
  6  7  1  0  0  0  0
  6 13  1  0  0  0  0
  6 14  1  0  0  0  0
  7 15  1  0  0  0  0
  7 16  1  0  0  0  0
  7 17  1  0  0  0  0
  8 18  1  0  0  0  0
  9 10  2  0  0  0  0
  9 19  1  0  0  0  0
 10 20  1  0  0  0  0
M  END
> <PUBCHEM_COMPOUND_CID>
103404

> <PUBCHEM_CONFORMER_RMSD>
0.6

> <PUBCHEM_CONFORMER_DIVERSEORDER>
1
6
5
3
4
7
8
2

> <PUBCHEM_MMFF94_PARTIAL_CHARGES>
12
1 -0.56
10 0.16
18 0.15
19 0.15
2 -0.62
20 0.15
3 -0.62
4 0.42
5 0.17
6 0.28
8 0.16
9 0.16

> <PUBCHEM_EFFECTIVE_ROTOR_COUNT>
3

> <PUBCHEM_PHARMACOPHORE_FEATURES>
4
1 1 acceptor
1 2 acceptor
1 3 acceptor
6 2 3 5 8 9 10 rings

> <PUBCHEM_HEAVY_ATOM_COUNT>
10

> <PUBCHEM_ATOM_DEF_STEREO_COUNT>
0

> <PUBCHEM_ATOM_UDEF_STEREO_COUNT>
0

> <PUBCHEM_BOND_DEF_STEREO_COUNT>
0

> <PUBCHEM_BOND_UDEF_STEREO_COUNT>
0

> <PUBCHEM_ISOTOPIC_ATOM_COUNT>
0

> <PUBCHEM_COMPONENT_COUNT>
1

> <PUBCHEM_CACTVS_TAUTO_COUNT>
1

> <PUBCHEM_CONFORMER_ID>
000193EC00000001

> <PUBCHEM_MMFF94_ENERGY>
21.0061

> <PUBCHEM_FEATURE_SELFOVERLAP>
20.301

> <PUBCHEM_SHAPE_FINGERPRINT>
10219947 1 18408318891108444981
10857977 72 17240479217310423501
12932764 1 18409445886564257727
14325111 11 18412823616339013375
14390081 3 14045743703707197387
15775835 57 17775283901985367601
20279233 1 17603580829482267655
20281407 28 17022904519258782435
20645477 70 18263630797851891319
20871998 22 17983578507614912158
29004967 10 18187918452811174388
3248919 1 17489867137814126871

> <PUBCHEM_SHAPE_MULTIPOLES>
189.96
6.13
1.13
0.85
5.96
0.01
0.01
-0.11
-1.99
-0.92
-0.02
0.36
0
0.02

> <PUBCHEM_SHAPE_SELFOVERLAP>
378.034

> <PUBCHEM_SHAPE_VOLUME>
113

> <PUBCHEM_COORDINATE_TYPE>
2
5
10

$$$$
