103589
  -OEChem-11232108553D

 27 26  0     1  0  0  0  0  0999 V2000
   -0.5223    2.4702    0.0048 O   0  0  0  0  0  0  0  0  0  0  0  0
    1.7216   -0.2719   -0.3820 O   0  0  0  0  0  0  0  0  0  0  0  0
    1.2378    1.0906    1.4132 O   0  0  0  0  0  0  0  0  0  0  0  0
   -1.0499    0.4266   -1.0972 C   0  0  0  0  0  0  0  0  0  0  0  0
   -1.8474   -0.1126    0.0916 C   0  0  0  0  0  0  0  0  0  0  0  0
    0.0737    1.3835   -0.6984 C   0  0  2  0  0  0  0  0  0  0  0  0
   -2.9302   -1.0909   -0.3664 C   0  0  0  0  0  0  0  0  0  0  0  0
   -3.7510   -1.6027    0.8067 C   0  0  0  0  0  0  0  0  0  0  0  0
    1.0674    0.7446    0.2510 C   0  0  0  0  0  0  0  0  0  0  0  0
    2.6845   -0.9750    0.4096 C   0  0  0  0  0  0  0  0  0  0  0  0
    3.3159   -2.0627   -0.4330 C   0  0  0  0  0  0  0  0  0  0  0  0
   -1.7413    0.9570   -1.7644 H   0  0  0  0  0  0  0  0  0  0  0  0
   -0.6321   -0.4125   -1.6667 H   0  0  0  0  0  0  0  0  0  0  0  0
   -1.1810   -0.6259    0.7946 H   0  0  0  0  0  0  0  0  0  0  0  0
   -2.3153    0.7161    0.6362 H   0  0  0  0  0  0  0  0  0  0  0  0
    0.5967    1.7800   -1.5743 H   0  0  0  0  0  0  0  0  0  0  0  0
   -2.4697   -1.9412   -0.8825 H   0  0  0  0  0  0  0  0  0  0  0  0
   -3.5981   -0.5988   -1.0830 H   0  0  0  0  0  0  0  0  0  0  0  0
   -4.2527   -0.7786    1.3239 H   0  0  0  0  0  0  0  0  0  0  0  0
   -4.5178   -2.3009    0.4566 H   0  0  0  0  0  0  0  0  0  0  0  0
   -3.1178   -2.1276    1.5291 H   0  0  0  0  0  0  0  0  0  0  0  0
    0.1724    3.1329    0.1606 H   0  0  0  0  0  0  0  0  0  0  0  0
    3.4563   -0.2765    0.7516 H   0  0  0  0  0  0  0  0  0  0  0  0
    2.1868   -1.4213    1.2779 H   0  0  0  0  0  0  0  0  0  0  0  0
    4.0586   -2.6219    0.1427 H   0  0  0  0  0  0  0  0  0  0  0  0
    2.5533   -2.7589   -0.7977 H   0  0  0  0  0  0  0  0  0  0  0  0
    3.8020   -1.6333   -1.3152 H   0  0  0  0  0  0  0  0  0  0  0  0
  1  6  1  0  0  0  0
  1 22  1  0  0  0  0
  2  9  1  0  0  0  0
  2 10  1  0  0  0  0
  3  9  2  0  0  0  0
  4  5  1  0  0  0  0
  4  6  1  0  0  0  0
  4 12  1  0  0  0  0
  4 13  1  0  0  0  0
  5  7  1  0  0  0  0
  5 14  1  0  0  0  0
  5 15  1  0  0  0  0
  6  9  1  0  0  0  0
  6 16  1  0  0  0  0
  7  8  1  0  0  0  0
  7 17  1  0  0  0  0
  7 18  1  0  0  0  0
  8 19  1  0  0  0  0
  8 20  1  0  0  0  0
  8 21  1  0  0  0  0
 10 11  1  0  0  0  0
 10 23  1  0  0  0  0
 10 24  1  0  0  0  0
 11 25  1  0  0  0  0
 11 26  1  0  0  0  0
 11 27  1  0  0  0  0
M  END
> <PUBCHEM_COMPOUND_CID>
103589

> <PUBCHEM_CONFORMER_RMSD>
0.6

> <PUBCHEM_CONFORMER_DIVERSEORDER>
1
314
184
259
206
201
385
349
230
22
155
202
244
229
221
21
256
348
242
143
264
350
15
29
360
14
382
260
246
154
258
188
334
270
47
272
353
390
42
232
303
187
364
106
69
274
153
286
366
172
375
194
115
195
347
92
11
316
387
323
168
50
124
354
146
160
211
305
288
145
352
392
394
248
363
98
300
3
291
105
381
250
357
240
384
386
152
309
86
293
164
396
239
82
380
362
329
339
41
369
30
213
367
254
313
38
315
322
373
218
103
73
90
34
44
113
207
318
33
273
265
269
266
376
391
223
214
61
215
4
131
277
91
284
308
326
276
109
101
26
138
298
351
331
212
208
210
311
142
178
2
203
16
99
5
271
102
222
79
243
125
379
159
393
317
150
302
28
84
368
268
182
216
340
255
10
52
377
123
341
40
167
35
55
320
395
179
327
378
247
282
306
13
6
297
97
72
171
57
169
63
275
85
337
46
283
161
374
226
220
121
151
166
356
180
177
370
107
261
388
137
193
251
140
365
358
76
231
70
338
49
190
267
371
134
217
58
66
328
120
236
304
157
192
93
249
126
225
32
219
198
87
56
78
345
147
81
234
108
383
71
20
54
27
200
96
162
18
279
119
170
59
9
25
139
77
292
122
39
299
89
144
64
233
112
204
68
372
262
176
280
343
8
312
12
307
158
17
294
53
130
45
199
48
156
60
127
285
163
51
278
295
228
65
67
116
355
321
361
245
209
37
289
359
111
175
148
330
136
88
227
149
281
133
186
237
342
241
324
19
189
196
7
224
173
235
36
80
263
132
100
290
344
95
129
114
181
31
83
23
141
118
333
287
185
319
346
117
135
94
296
110
335
128
191
62
24
253
389
325
75
257
301
332
165
238
183
74
43
104
336
174
205
197
310
252

> <PUBCHEM_MMFF94_PARTIAL_CHARGES>
7
1 -0.68
10 0.28
2 -0.43
22 0.4
3 -0.57
6 0.34
9 0.66

> <PUBCHEM_EFFECTIVE_ROTOR_COUNT>
6

> <PUBCHEM_PHARMACOPHORE_FEATURES>
4
1 1 acceptor
1 1 donor
1 3 acceptor
1 8 hydrophobe

> <PUBCHEM_HEAVY_ATOM_COUNT>
11

> <PUBCHEM_ATOM_DEF_STEREO_COUNT>
0

> <PUBCHEM_ATOM_UDEF_STEREO_COUNT>
1

> <PUBCHEM_BOND_DEF_STEREO_COUNT>
0

> <PUBCHEM_BOND_UDEF_STEREO_COUNT>
0

> <PUBCHEM_ISOTOPIC_ATOM_COUNT>
0

> <PUBCHEM_COMPONENT_COUNT>
1

> <PUBCHEM_CACTVS_TAUTO_COUNT>
1

> <PUBCHEM_CONFORMER_ID>
000194A500000001

> <PUBCHEM_MMFF94_ENERGY>
1.3778

> <PUBCHEM_FEATURE_SELFOVERLAP>
20.306

> <PUBCHEM_SHAPE_FINGERPRINT>
12006461 19 18409736191994274371
12932764 1 17845095254366653293
14252887 29 18336264655840561283
14390081 3 10879729692736985831
18186145 218 8430327877979045935
19766037 51 18040727977820380539
20231682 184 8358265808601098107
20281407 28 18411699846609491870
20645477 70 17971464355009594527
20671657 53 17022617589483838614
20711978 78 18047740779072774365
20711983 138 18410284783897833605
20711985 344 17677316204986110973
20820808 20 8358272423040599079
20871998 22 18409165532231113070
21028194 46 11383844808756803853
21061003 4 17346025672256956906
21665056 4 17254836373752728006
23500284 5 18335985246738007427
8050 44 10663835056889819915
94968 8 18114748243000368587

> <PUBCHEM_SHAPE_MULTIPOLES>
208.77
5.51
2.25
1.02
1.42
0.33
-0.1
-5.48
-0.55
-0.34
-0.03
0.02
0.12
0.73

> <PUBCHEM_SHAPE_SELFOVERLAP>
383.999

> <PUBCHEM_SHAPE_VOLUME>
132.5

> <PUBCHEM_COORDINATE_TYPE>
2
5
10

$$$$
