103688
  -OEChem-11232108453D

 29 30  0     1  0  0  0  0  0999 V2000
    0.6554    1.9532    0.0814 O   0  0  0  0  0  0  0  0  0  0  0  0
    2.9309   -0.6245   -0.0442 O   0  0  0  0  0  0  0  0  0  0  0  0
    3.4673    1.5586   -0.5763 O   0  0  0  0  0  0  0  0  0  0  0  0
    0.2734    0.6641    0.5638 C   0  0  2  0  0  0  0  0  0  0  0  0
    1.2069    0.8160   -0.5948 C   0  0  2  0  0  0  0  0  0  0  0  0
   -1.1388    0.2519    0.3251 C   0  0  0  0  0  0  0  0  0  0  0  0
    2.6545    0.6586   -0.4136 C   0  0  0  0  0  0  0  0  0  0  0  0
   -2.1849    1.0854    0.7207 C   0  0  0  0  0  0  0  0  0  0  0  0
   -1.4143   -0.9676   -0.2937 C   0  0  0  0  0  0  0  0  0  0  0  0
   -3.5067    0.6994    0.4974 C   0  0  0  0  0  0  0  0  0  0  0  0
   -2.7361   -1.3534   -0.5171 C   0  0  0  0  0  0  0  0  0  0  0  0
   -3.7822   -0.5200   -0.1215 C   0  0  0  0  0  0  0  0  0  0  0  0
    4.3154   -0.9190    0.1669 C   0  0  0  0  0  0  0  0  0  0  0  0
   -5.1956   -0.9308   -0.3625 C   0  0  0  0  0  0  0  0  0  0  0  0
    4.4548   -2.3718    0.5684 C   0  0  0  0  0  0  0  0  0  0  0  0
    0.7047    0.3614    1.5136 H   0  0  0  0  0  0  0  0  0  0  0  0
    0.8421    0.6328   -1.5988 H   0  0  0  0  0  0  0  0  0  0  0  0
   -1.9831    2.0369    1.2055 H   0  0  0  0  0  0  0  0  0  0  0  0
   -0.6079   -1.6269   -0.6040 H   0  0  0  0  0  0  0  0  0  0  0  0
   -4.3132    1.3581    0.8086 H   0  0  0  0  0  0  0  0  0  0  0  0
   -2.9378   -2.3050   -1.0017 H   0  0  0  0  0  0  0  0  0  0  0  0
    4.8730   -0.7354   -0.7583 H   0  0  0  0  0  0  0  0  0  0  0  0
    4.7083   -0.2758    0.9621 H   0  0  0  0  0  0  0  0  0  0  0  0
   -5.2995   -2.0210   -0.3415 H   0  0  0  0  0  0  0  0  0  0  0  0
   -5.8603   -0.5311    0.4109 H   0  0  0  0  0  0  0  0  0  0  0  0
   -5.5320   -0.5653   -1.3377 H   0  0  0  0  0  0  0  0  0  0  0  0
    5.5033   -2.6318    0.7384 H   0  0  0  0  0  0  0  0  0  0  0  0
    3.8872   -2.5750    1.4825 H   0  0  0  0  0  0  0  0  0  0  0  0
    4.0495   -3.0272   -0.2095 H   0  0  0  0  0  0  0  0  0  0  0  0
  1  4  1  0  0  0  0
  1  5  1  0  0  0  0
  2  7  1  0  0  0  0
  2 13  1  0  0  0  0
  3  7  2  0  0  0  0
  4  5  1  0  0  0  0
  4  6  1  0  0  0  0
  4 16  1  0  0  0  0
  5  7  1  0  0  0  0
  5 17  1  0  0  0  0
  6  8  2  0  0  0  0
  6  9  1  0  0  0  0
  8 10  1  0  0  0  0
  8 18  1  0  0  0  0
  9 11  2  0  0  0  0
  9 19  1  0  0  0  0
 10 12  2  0  0  0  0
 10 20  1  0  0  0  0
 11 12  1  0  0  0  0
 11 21  1  0  0  0  0
 12 14  1  0  0  0  0
 13 15  1  0  0  0  0
 13 22  1  0  0  0  0
 13 23  1  0  0  0  0
 14 24  1  0  0  0  0
 14 25  1  0  0  0  0
 14 26  1  0  0  0  0
 15 27  1  0  0  0  0
 15 28  1  0  0  0  0
 15 29  1  0  0  0  0
M  END
> <PUBCHEM_COMPOUND_CID>
103688

> <PUBCHEM_CONFORMER_RMSD>
0.6

> <PUBCHEM_CONFORMER_DIVERSEORDER>
1
52
85
88
63
54
90
60
78
69
67
87
9
6
53
77
48
8
70
42
80
44
71
10
37
59
66
22
74
58
21
49
38
11
51
91
15
14
43
35
76
72
30
19
81
73
28
61
32
62
12
29
7
34
40
83
41
47
13
46
16
65
68
27
31
4
17
2
55
57
33
86
5
82
26
89
39
23
56
24
79
84
75
18
3
64
20
45
36
50
25

> <PUBCHEM_MMFF94_PARTIAL_CHARGES>
20
1 -0.3
10 -0.15
11 -0.15
12 -0.14
13 0.28
14 0.14
16 0.1
17 0.1
18 0.15
19 0.15
2 -0.43
20 0.15
21 0.15
3 -0.57
4 0.08
5 0.05
6 -0.03
7 0.72
8 -0.15
9 -0.15

> <PUBCHEM_EFFECTIVE_ROTOR_COUNT>
4.6

> <PUBCHEM_PHARMACOPHORE_FEATURES>
3
1 1 acceptor
1 3 acceptor
6 6 8 9 10 11 12 rings

> <PUBCHEM_HEAVY_ATOM_COUNT>
15

> <PUBCHEM_ATOM_DEF_STEREO_COUNT>
0

> <PUBCHEM_ATOM_UDEF_STEREO_COUNT>
2

> <PUBCHEM_BOND_DEF_STEREO_COUNT>
0

> <PUBCHEM_BOND_UDEF_STEREO_COUNT>
0

> <PUBCHEM_ISOTOPIC_ATOM_COUNT>
0

> <PUBCHEM_COMPONENT_COUNT>
1

> <PUBCHEM_CACTVS_TAUTO_COUNT>
1

> <PUBCHEM_CONFORMER_ID>
0001950800000001

> <PUBCHEM_MMFF94_ENERGY>
26.3495

> <PUBCHEM_FEATURE_SELFOVERLAP>
15.225

> <PUBCHEM_SHAPE_FINGERPRINT>
10062212 137 18343861100399722647
10465860 250 17489866016331777553
11159736 12 18342450448028880711
11769659 78 18341893012807919725
12555020 224 18408876339842432151
12839892 36 17561359587065448327
13167823 11 18411702084187252226
13533116 47 18411979186824017219
13690532 89 18411981369041715891
13760787 5 18335146401307847017
13862211 1 18059289968250444823
14144814 61 18343309188243077313
1420 369 18341049623376791498
15442244 35 18411422782580291296
17862501 102 18201718453390177419
17977361 122 18341045229245452523
1798214 20 18334573521300548458
18186145 218 16732706055811102272
19422 9 18410298007769874184
200 152 18342735226288693831
20281475 54 18411136965174950804
20645477 70 18186518813158725810
21267235 1 18412554201303837950
21501925 9 18342454837970396496
22485316 2 18411981385942166140
2255824 54 18261118499950216044
22646028 28 18412544305909989610
23402539 116 17917707998934997213
23463225 33 18412547587312346742
23559900 14 18131630101868236208
351380 3 18335983056880063130
42 15 18343022185648634027
4990 188 16950561116569362275
5104073 3 18272376386252900211
5374978 207 17561082531366790024
559249 180 18266172842654093547
573450 72 18202283572085630321
633830 44 17022904549181369053
76465 3 18337105675141176018
9981440 41 17399795389711432456

> <PUBCHEM_SHAPE_MULTIPOLES>
291.09
9.86
1.89
0.8
1.51
0.31
-0.02
5.11
0.03
1.6
-0.08
-0.01
-0.03
-1.22

> <PUBCHEM_SHAPE_SELFOVERLAP>
602.658

> <PUBCHEM_SHAPE_VOLUME>
168.3

> <PUBCHEM_COORDINATE_TYPE>
2
5
10

$$$$
