103655
  -OEChem-11232109463D

 41 42  0     1  0  0  0  0  0999 V2000
   -1.7788    0.5134   -0.9195 O   0  0  0  0  0  0  0  0  0  0  0  0
   -1.5160   -0.5381    1.2105 O   0  0  0  0  0  0  0  0  0  0  0  0
    3.1900   -0.8696   -0.8827 O   0  0  0  0  0  0  0  0  0  0  0  0
    4.3062    1.4655    0.1292 O   0  0  0  0  0  0  0  0  0  0  0  0
   -3.1743    0.1905   -1.0016 C   0  0  0  0  0  0  0  0  0  0  0  0
   -3.4812   -1.0197   -0.0998 C   0  0  0  0  0  0  0  0  0  0  0  0
   -2.9105   -0.8339    1.3080 C   0  0  1  0  0  0  0  0  0  0  0  0
   -1.2883    0.6306    0.4190 C   0  0  1  0  0  0  0  0  0  0  0  0
   -4.0315    1.4136   -0.6465 C   0  0  0  0  0  0  0  0  0  0  0  0
   -3.4423   -0.1799   -2.4661 C   0  0  0  0  0  0  0  0  0  0  0  0
   -3.0654   -2.0989    2.1405 C   0  0  0  0  0  0  0  0  0  0  0  0
    0.2037    0.8503    0.3402 C   0  0  0  0  0  0  0  0  0  0  0  0
    1.0234   -0.1188   -0.2404 C   0  0  0  0  0  0  0  0  0  0  0  0
    0.7659    2.0226    0.8483 C   0  0  0  0  0  0  0  0  0  0  0  0
    2.4016    0.0838   -0.3128 C   0  0  0  0  0  0  0  0  0  0  0  0
    2.1439    2.2253    0.7759 C   0  0  0  0  0  0  0  0  0  0  0  0
    2.9618    1.2559    0.1953 C   0  0  0  0  0  0  0  0  0  0  0  0
    3.1746   -2.1651   -0.2861 C   0  0  0  0  0  0  0  0  0  0  0  0
    4.5171   -2.8276   -0.5114 C   0  0  0  0  0  0  0  0  0  0  0  0
   -3.0005   -1.9045   -0.5401 H   0  0  0  0  0  0  0  0  0  0  0  0
   -4.5586   -1.2185   -0.0608 H   0  0  0  0  0  0  0  0  0  0  0  0
   -3.4129   -0.0115    1.8305 H   0  0  0  0  0  0  0  0  0  0  0  0
   -1.7553    1.4930    0.9098 H   0  0  0  0  0  0  0  0  0  0  0  0
   -3.9039    1.7265    0.3936 H   0  0  0  0  0  0  0  0  0  0  0  0
   -3.7471    2.2747   -1.2621 H   0  0  0  0  0  0  0  0  0  0  0  0
   -5.0964    1.2118   -0.8038 H   0  0  0  0  0  0  0  0  0  0  0  0
   -4.4873   -0.4640   -2.6271 H   0  0  0  0  0  0  0  0  0  0  0  0
   -3.2031    0.6585   -3.1307 H   0  0  0  0  0  0  0  0  0  0  0  0
   -2.8033   -1.0128   -2.7819 H   0  0  0  0  0  0  0  0  0  0  0  0
   -2.6367   -1.9525    3.1379 H   0  0  0  0  0  0  0  0  0  0  0  0
   -4.1181   -2.3762    2.2501 H   0  0  0  0  0  0  0  0  0  0  0  0
   -2.5249   -2.9375    1.6877 H   0  0  0  0  0  0  0  0  0  0  0  0
    0.5846   -1.0283   -0.6438 H   0  0  0  0  0  0  0  0  0  0  0  0
    0.1420    2.7872    1.3034 H   0  0  0  0  0  0  0  0  0  0  0  0
    2.5672    3.1429    1.1754 H   0  0  0  0  0  0  0  0  0  0  0  0
    2.9813   -2.0995    0.7919 H   0  0  0  0  0  0  0  0  0  0  0  0
    2.3826   -2.7618   -0.7515 H   0  0  0  0  0  0  0  0  0  0  0  0
    4.5123    2.3279    0.5291 H   0  0  0  0  0  0  0  0  0  0  0  0
    4.5365   -3.8303   -0.0756 H   0  0  0  0  0  0  0  0  0  0  0  0
    4.7351   -2.9033   -1.5818 H   0  0  0  0  0  0  0  0  0  0  0  0
    5.3201   -2.2322   -0.0645 H   0  0  0  0  0  0  0  0  0  0  0  0
  1  5  1  0  0  0  0
  1  8  1  0  0  0  0
  2  7  1  0  0  0  0
  2  8  1  0  0  0  0
  3 15  1  0  0  0  0
  3 18  1  0  0  0  0
  4 17  1  0  0  0  0
  4 38  1  0  0  0  0
  5  6  1  0  0  0  0
  5  9  1  0  0  0  0
  5 10  1  0  0  0  0
  6  7  1  0  0  0  0
  6 20  1  0  0  0  0
  6 21  1  0  0  0  0
  7 11  1  0  0  0  0
  7 22  1  0  0  0  0
  8 12  1  0  0  0  0
  8 23  1  0  0  0  0
  9 24  1  0  0  0  0
  9 25  1  0  0  0  0
  9 26  1  0  0  0  0
 10 27  1  0  0  0  0
 10 28  1  0  0  0  0
 10 29  1  0  0  0  0
 11 30  1  0  0  0  0
 11 31  1  0  0  0  0
 11 32  1  0  0  0  0
 12 13  2  0  0  0  0
 12 14  1  0  0  0  0
 13 15  1  0  0  0  0
 13 33  1  0  0  0  0
 14 16  2  0  0  0  0
 14 34  1  0  0  0  0
 15 17  2  0  0  0  0
 16 17  1  0  0  0  0
 16 35  1  0  0  0  0
 18 19  1  0  0  0  0
 18 36  1  0  0  0  0
 18 37  1  0  0  0  0
 19 39  1  0  0  0  0
 19 40  1  0  0  0  0
 19 41  1  0  0  0  0
M  END
> <PUBCHEM_COMPOUND_CID>
103655

> <PUBCHEM_CONFORMER_RMSD>
0.6

> <PUBCHEM_CONFORMER_DIVERSEORDER>
3
142
27
101
143
21
135
119
136
146
114
127
121
54
56
132
104
140
72
144
37
145
4
95
133
131
89
46
141
76
58
94
70
139
73
117
138
128
96
134
97
64
125
14
120
83
111
123
24
126
105
84
53
26
93
91
55
63
38
103
15
110
79
35
88
51
71
31
109
129
59
68
118
34
69
81
86
137
16
66
87
116
50
32
130
18
43
61
30
99
77
29
107
60
20
1
28
122
80
48
49
39
106
108
92
65
2
82
75
7
98
41
124
113
36
67
100
10
44
115
52
90
112
85
42
47
8
40
45
78
13
33
22
74
5
9
25
11
57
12
17
6
19
102
23
62

> <PUBCHEM_MMFF94_PARTIAL_CHARGES>
18
1 -0.56
12 -0.14
13 -0.15
14 -0.15
15 0.08
16 -0.15
17 0.08
18 0.28
2 -0.56
3 -0.36
33 0.15
34 0.15
35 0.15
38 0.45
4 -0.53
5 0.28
7 0.28
8 0.7

> <PUBCHEM_EFFECTIVE_ROTOR_COUNT>
4.2

> <PUBCHEM_PHARMACOPHORE_FEATURES>
7
1 1 acceptor
1 2 acceptor
1 3 acceptor
1 4 donor
3 5 9 10 hydrophobe
6 1 2 5 6 7 8 rings
6 12 13 14 15 16 17 rings

> <PUBCHEM_HEAVY_ATOM_COUNT>
19

> <PUBCHEM_ATOM_DEF_STEREO_COUNT>
0

> <PUBCHEM_ATOM_UDEF_STEREO_COUNT>
2

> <PUBCHEM_BOND_DEF_STEREO_COUNT>
0

> <PUBCHEM_BOND_UDEF_STEREO_COUNT>
0

> <PUBCHEM_ISOTOPIC_ATOM_COUNT>
0

> <PUBCHEM_COMPONENT_COUNT>
1

> <PUBCHEM_CACTVS_TAUTO_COUNT>
3

> <PUBCHEM_CONFORMER_ID>
000194E700000003

> <PUBCHEM_MMFF94_ENERGY>
54.0739

> <PUBCHEM_FEATURE_SELFOVERLAP>
35.555

> <PUBCHEM_SHAPE_FINGERPRINT>
11137873 295 18412548686913723155
11582403 64 16895042458199757049
11796584 16 17822006472404082362
12202030 40 18188503457131692371
12236239 1 16702030828278994425
12363563 72 18199474272853984166
12549972 3 18410011035525364281
12553582 1 17986972777276933774
12596599 1 17203614774005826078
12824470 246 16915645098780707487
13134695 92 18272928319589365356
13140716 1 17985278382761512392
13296908 3 18335706060952192819
13544592 145 18187646856090413533
13583140 156 17559129872257857627
15375462 189 17704080628661543856
16945 1 18201157779690587760
18186145 218 17967806111808134141
18222031 100 17774155687808804854
19049666 15 18334858324739510409
200 152 17846212306229701633
20279233 1 18334293214259296409
20626108 58 17416093197213669711
20645477 56 17749105612908315373
20645477 70 18341889680124489830
20681651 13 17346310565953847095
20693207 138 18115042864877201446
221490 88 18410019831792465314
22943178 12 18260548960810165387
23526113 38 18337099124925854592
23557571 272 17749388221408232525
23559900 14 18187364307841364212
2838139 119 15503525775578109222
4921388 177 17386014974504564859
5161694 15 18114457881725266415
6049 1 18187373176574433673
621550 34 17976830010017099961
7615 1 16558754537420599113
77492 1 16701748249406030897
81228 2 17623865526055616200
9709674 26 18334856142801230187

> <PUBCHEM_SHAPE_MULTIPOLES>
367.53
8.74
2.56
1.61
2.36
0.82
0.14
3.23
1.99
2.84
-0.64
-2.3
0.6
2.04

> <PUBCHEM_SHAPE_SELFOVERLAP>
760.258

> <PUBCHEM_SHAPE_VOLUME>
210.5

> <PUBCHEM_COORDINATE_TYPE>
2
5
10

$$$$
