103654
  -OEChem-11232108533D

 38 39  0     1  0  0  0  0  0999 V2000
   -1.5304    0.7993   -0.6972 O   0  0  0  0  0  0  0  0  0  0  0  0
   -1.3396   -0.9243    0.9472 O   0  0  0  0  0  0  0  0  0  0  0  0
    3.2419   -1.0149   -1.4295 O   0  0  0  0  0  0  0  0  0  0  0  0
    4.6486    0.7213    0.2240 O   0  0  0  0  0  0  0  0  0  0  0  0
   -2.9557    0.6668   -0.7937 C   0  0  0  0  0  0  0  0  0  0  0  0
   -3.3797   -0.7371   -0.3231 C   0  0  0  0  0  0  0  0  0  0  0  0
   -2.7562   -1.0916    1.0287 C   0  0  1  0  0  0  0  0  0  0  0  0
   -0.9963    0.4119    0.5718 C   0  0  1  0  0  0  0  0  0  0  0  0
   -3.6546    1.7818   -0.0029 C   0  0  0  0  0  0  0  0  0  0  0  0
   -3.3017    0.8365   -2.2787 C   0  0  0  0  0  0  0  0  0  0  0  0
   -3.0375   -2.5392    1.4065 C   0  0  0  0  0  0  0  0  0  0  0  0
    0.5087    0.4916    0.4766 C   0  0  0  0  0  0  0  0  0  0  0  0
    1.1948   -0.3055   -0.4411 C   0  0  0  0  0  0  0  0  0  0  0  0
    1.2165    1.3629    1.3061 C   0  0  0  0  0  0  0  0  0  0  0  0
    2.5850   -0.2314   -0.5293 C   0  0  0  0  0  0  0  0  0  0  0  0
    2.6067    1.4367    1.2182 C   0  0  0  0  0  0  0  0  0  0  0  0
    3.2910    0.6396    0.3005 C   0  0  0  0  0  0  0  0  0  0  0  0
    3.6585   -2.3042   -0.9842 C   0  0  0  0  0  0  0  0  0  0  0  0
   -3.0172   -1.4681   -1.0593 H   0  0  0  0  0  0  0  0  0  0  0  0
   -4.4717   -0.8263   -0.2844 H   0  0  0  0  0  0  0  0  0  0  0  0
   -3.1456   -0.4443    1.8231 H   0  0  0  0  0  0  0  0  0  0  0  0
   -1.3466    1.1036    1.3472 H   0  0  0  0  0  0  0  0  0  0  0  0
   -3.4653    1.7145    1.0721 H   0  0  0  0  0  0  0  0  0  0  0  0
   -3.2868    2.7653   -0.3174 H   0  0  0  0  0  0  0  0  0  0  0  0
   -4.7394    1.7541   -0.1510 H   0  0  0  0  0  0  0  0  0  0  0  0
   -4.3765    0.7308   -2.4586 H   0  0  0  0  0  0  0  0  0  0  0  0
   -2.9826    1.8196   -2.6439 H   0  0  0  0  0  0  0  0  0  0  0  0
   -2.7728    0.0963   -2.8903 H   0  0  0  0  0  0  0  0  0  0  0  0
   -2.5699   -2.7791    2.3676 H   0  0  0  0  0  0  0  0  0  0  0  0
   -4.1123   -2.7281    1.4843 H   0  0  0  0  0  0  0  0  0  0  0  0
   -2.6105   -3.2290    0.6701 H   0  0  0  0  0  0  0  0  0  0  0  0
    0.6504   -0.9863   -1.0915 H   0  0  0  0  0  0  0  0  0  0  0  0
    0.6980    1.9905    2.0260 H   0  0  0  0  0  0  0  0  0  0  0  0
    3.1442    2.1197    1.8705 H   0  0  0  0  0  0  0  0  0  0  0  0
    4.9638    1.3739    0.8726 H   0  0  0  0  0  0  0  0  0  0  0  0
    4.3526   -2.2159   -0.1423 H   0  0  0  0  0  0  0  0  0  0  0  0
    4.1728   -2.8025   -1.8105 H   0  0  0  0  0  0  0  0  0  0  0  0
    2.7925   -2.9083   -0.6956 H   0  0  0  0  0  0  0  0  0  0  0  0
  1  5  1  0  0  0  0
  1  8  1  0  0  0  0
  2  7  1  0  0  0  0
  2  8  1  0  0  0  0
  3 15  1  0  0  0  0
  3 18  1  0  0  0  0
  4 17  1  0  0  0  0
  4 35  1  0  0  0  0
  5  6  1  0  0  0  0
  5  9  1  0  0  0  0
  5 10  1  0  0  0  0
  6  7  1  0  0  0  0
  6 19  1  0  0  0  0
  6 20  1  0  0  0  0
  7 11  1  0  0  0  0
  7 21  1  0  0  0  0
  8 12  1  0  0  0  0
  8 22  1  0  0  0  0
  9 23  1  0  0  0  0
  9 24  1  0  0  0  0
  9 25  1  0  0  0  0
 10 26  1  0  0  0  0
 10 27  1  0  0  0  0
 10 28  1  0  0  0  0
 11 29  1  0  0  0  0
 11 30  1  0  0  0  0
 11 31  1  0  0  0  0
 12 13  2  0  0  0  0
 12 14  1  0  0  0  0
 13 15  1  0  0  0  0
 13 32  1  0  0  0  0
 14 16  2  0  0  0  0
 14 33  1  0  0  0  0
 15 17  2  0  0  0  0
 16 17  1  0  0  0  0
 16 34  1  0  0  0  0
 18 36  1  0  0  0  0
 18 37  1  0  0  0  0
 18 38  1  0  0  0  0
M  END
> <PUBCHEM_COMPOUND_CID>
103654

> <PUBCHEM_CONFORMER_RMSD>
0.6

> <PUBCHEM_CONFORMER_DIVERSEORDER>
1
23
17
34
38
13
20
27
35
6
37
29
18
16
19
30
4
11
8
25
15
26
32
21
7
10
24
36
31
3
28
9
22
33
5
14
12
2

> <PUBCHEM_MMFF94_PARTIAL_CHARGES>
18
1 -0.56
12 -0.14
13 -0.15
14 -0.15
15 0.08
16 -0.15
17 0.08
18 0.28
2 -0.56
3 -0.36
32 0.15
33 0.15
34 0.15
35 0.45
4 -0.53
5 0.28
7 0.28
8 0.7

> <PUBCHEM_EFFECTIVE_ROTOR_COUNT>
3.2

> <PUBCHEM_PHARMACOPHORE_FEATURES>
7
1 1 acceptor
1 2 acceptor
1 3 acceptor
1 4 donor
3 5 9 10 hydrophobe
6 1 2 5 6 7 8 rings
6 12 13 14 15 16 17 rings

> <PUBCHEM_HEAVY_ATOM_COUNT>
18

> <PUBCHEM_ATOM_DEF_STEREO_COUNT>
0

> <PUBCHEM_ATOM_UDEF_STEREO_COUNT>
2

> <PUBCHEM_BOND_DEF_STEREO_COUNT>
0

> <PUBCHEM_BOND_UDEF_STEREO_COUNT>
0

> <PUBCHEM_ISOTOPIC_ATOM_COUNT>
0

> <PUBCHEM_COMPONENT_COUNT>
1

> <PUBCHEM_CACTVS_TAUTO_COUNT>
3

> <PUBCHEM_CONFORMER_ID>
000194E600000001

> <PUBCHEM_MMFF94_ENERGY>
57.249

> <PUBCHEM_FEATURE_SELFOVERLAP>
35.555

> <PUBCHEM_SHAPE_FINGERPRINT>
11137873 295 18060144202136443583
11543360 7 17750254615401857118
11582403 64 16900105644705079449
11615757 297 16630524080723453040
11796584 16 18114742630127024418
12173636 292 18115866305076985013
12202030 40 18338811090310654931
12236239 1 15719382954002772233
12500047 106 17968081023905861977
12553582 1 17416985953774916886
12592029 89 17346321432553260031
12932764 1 16877660171253793381
13134695 92 17917705778152230848
13296908 3 18413111666647000938
13544592 145 18336832970113111511
13583140 156 17972849674956287616
14386348 63 18411422846877927451
14576447 43 17059755819615925724
15219456 202 18342178877272771064
15375358 24 18342729732925503472
15375462 189 16702308978971954866
16752209 62 13470688144454730845
16945 1 17676478471889150529
18186145 218 18262232214386266253
19049666 15 18412547591406834683
19868273 293 17385438795961947621
200 152 17203321225875915729
20279233 1 18411699906659802346
20645477 56 18114181930329933117
20645477 70 17917711258277020598
20693207 138 18266480809089488374
21864079 5 15647346224900066718
22112679 90 16515399694288516053
22943178 12 18410575110496303306
23402539 116 17530954805160225532
23526113 38 18342729698312518656
23557571 272 18187926222201583305
23559900 14 18335701599209263378
474 4 15911616164409082800
4921388 177 18041005046239494011
5161694 15 18336825295064491527
6049 1 18337679710231108665
621550 34 17981891049028133593
7615 1 15410896275127177843
77492 1 15698004067044685625
81228 2 17823421672696664011
88987 49 17531515551309945333
9709674 26 18411981372957056967

> <PUBCHEM_SHAPE_MULTIPOLES>
346.95
8.24
2.07
1.59
2.76
1.13
0.43
0.66
1.65
-0.45
-0.42
-0.73
0.1
2.52

> <PUBCHEM_SHAPE_SELFOVERLAP>
722.259

> <PUBCHEM_SHAPE_VOLUME>
197.7

> <PUBCHEM_COORDINATE_TYPE>
2
5
10

$$$$
