103649
  -OEChem-11232108443D

 34 34  0     1  0  0  0  0  0999 V2000
    1.8332   -1.9546    1.1395 O   0  0  0  0  0  0  0  0  0  0  0  0
    2.7734   -0.7702   -0.7348 C   0  0  1  0  0  0  0  0  0  0  0  0
    1.3258   -0.3978   -1.0857 C   0  0  0  0  0  0  0  0  0  0  0  0
    3.6429    0.4742   -0.5537 C   0  0  0  0  0  0  0  0  0  0  0  0
    0.7844    0.7819   -0.3133 C   0  0  0  0  0  0  0  0  0  0  0  0
    3.0693    1.4367    0.4894 C   0  0  0  0  0  0  0  0  0  0  0  0
    1.5809    1.5922    0.4043 C   0  0  0  0  0  0  0  0  0  0  0  0
   -0.6979    1.0002   -0.3964 C   0  0  0  0  0  0  0  0  0  0  0  0
   -1.4412    0.2150    0.6799 C   0  0  0  0  0  0  0  0  0  0  0  0
    2.8260   -1.6372    0.4931 C   0  0  0  0  0  0  0  0  0  0  0  0
   -2.9108    0.5294    0.6543 C   0  0  0  0  0  0  0  0  0  0  0  0
   -3.8846   -0.1374    0.0062 C   0  0  0  0  0  0  0  0  0  0  0  0
   -5.3410    0.2311    0.0218 C   0  0  0  0  0  0  0  0  0  0  0  0
   -3.5605   -1.3637   -0.8046 C   0  0  0  0  0  0  0  0  0  0  0  0
    3.1842   -1.3821   -1.5476 H   0  0  0  0  0  0  0  0  0  0  0  0
    0.6681   -1.2659   -0.9551 H   0  0  0  0  0  0  0  0  0  0  0  0
    1.2830   -0.1381   -2.1519 H   0  0  0  0  0  0  0  0  0  0  0  0
    3.7185    0.9956   -1.5172 H   0  0  0  0  0  0  0  0  0  0  0  0
    4.6642    0.1972   -0.2658 H   0  0  0  0  0  0  0  0  0  0  0  0
    3.5433    2.4171    0.3645 H   0  0  0  0  0  0  0  0  0  0  0  0
    3.3231    1.0883    1.4977 H   0  0  0  0  0  0  0  0  0  0  0  0
    1.1467    2.4180    0.9621 H   0  0  0  0  0  0  0  0  0  0  0  0
   -0.9183    2.0713   -0.2884 H   0  0  0  0  0  0  0  0  0  0  0  0
   -1.0569    0.7260   -1.3966 H   0  0  0  0  0  0  0  0  0  0  0  0
   -1.2551   -0.8603    0.5875 H   0  0  0  0  0  0  0  0  0  0  0  0
   -1.0613    0.4866    1.6739 H   0  0  0  0  0  0  0  0  0  0  0  0
    3.8274   -1.9986    0.7838 H   0  0  0  0  0  0  0  0  0  0  0  0
   -3.1966    1.4146    1.2210 H   0  0  0  0  0  0  0  0  0  0  0  0
   -5.5264    1.1149    0.6410 H   0  0  0  0  0  0  0  0  0  0  0  0
   -5.6902    0.4534   -0.9915 H   0  0  0  0  0  0  0  0  0  0  0  0
   -5.9385   -0.5921    0.4264 H   0  0  0  0  0  0  0  0  0  0  0  0
   -4.0430   -1.2976   -1.7865 H   0  0  0  0  0  0  0  0  0  0  0  0
   -3.9410   -2.2576   -0.2995 H   0  0  0  0  0  0  0  0  0  0  0  0
   -2.4959   -1.5102   -0.9994 H   0  0  0  0  0  0  0  0  0  0  0  0
  1 10  2  0  0  0  0
  2  3  1  0  0  0  0
  2  4  1  0  0  0  0
  2 10  1  0  0  0  0
  2 15  1  0  0  0  0
  3  5  1  0  0  0  0
  3 16  1  0  0  0  0
  3 17  1  0  0  0  0
  4  6  1  0  0  0  0
  4 18  1  0  0  0  0
  4 19  1  0  0  0  0
  5  7  2  0  0  0  0
  5  8  1  0  0  0  0
  6  7  1  0  0  0  0
  6 20  1  0  0  0  0
  6 21  1  0  0  0  0
  7 22  1  0  0  0  0
  8  9  1  0  0  0  0
  8 23  1  0  0  0  0
  8 24  1  0  0  0  0
  9 11  1  0  0  0  0
  9 25  1  0  0  0  0
  9 26  1  0  0  0  0
 10 27  1  0  0  0  0
 11 12  2  0  0  0  0
 11 28  1  0  0  0  0
 12 13  1  0  0  0  0
 12 14  1  0  0  0  0
 13 29  1  0  0  0  0
 13 30  1  0  0  0  0
 13 31  1  0  0  0  0
 14 32  1  0  0  0  0
 14 33  1  0  0  0  0
 14 34  1  0  0  0  0
M  END
> <PUBCHEM_COMPOUND_CID>
103649

> <PUBCHEM_CONFORMER_RMSD>
0.6

> <PUBCHEM_CONFORMER_DIVERSEORDER>
1
81
101
106
142
16
44
103
20
139
68
46
124
135
25
122
75
141
98
137
63
37
89
104
2
73
71
113
7
94
93
86
119
72
145
53
91
149
133
64
49
125
15
28
30
34
140
129
77
76
115
18
78
5
118
100
47
4
126
38
17
138
97
26
114
131
3
12
69
107
11
35
66
121
10
85
65
13
52
43
144
29
23
117
9
41
70
84
132
39
55
6
56
96
40
57
95
33
58
61
50
112
110
147
19
74
108
24
14
143
136
130
27
51
127
48
21
92
128
8
111
67
87
59
32
62
54
109
116
83
22
90
31
99
82
80
36
42
45
105
102
120
123
79
60
146
148
88
134

> <PUBCHEM_MMFF94_PARTIAL_CHARGES>
16
1 -0.57
10 0.45
11 -0.29
12 -0.28
13 0.14
14 0.14
2 0.06
22 0.15
27 0.06
28 0.15
3 0.14
5 -0.28
6 0.14
7 -0.29
8 0.14
9 0.14

> <PUBCHEM_EFFECTIVE_ROTOR_COUNT>
4.8

> <PUBCHEM_PHARMACOPHORE_FEATURES>
3
1 1 acceptor
3 12 13 14 hydrophobe
6 2 3 4 5 6 7 rings

> <PUBCHEM_HEAVY_ATOM_COUNT>
14

> <PUBCHEM_ATOM_DEF_STEREO_COUNT>
0

> <PUBCHEM_ATOM_UDEF_STEREO_COUNT>
1

> <PUBCHEM_BOND_DEF_STEREO_COUNT>
0

> <PUBCHEM_BOND_UDEF_STEREO_COUNT>
0

> <PUBCHEM_ISOTOPIC_ATOM_COUNT>
0

> <PUBCHEM_COMPONENT_COUNT>
1

> <PUBCHEM_CACTVS_TAUTO_COUNT>
2

> <PUBCHEM_CONFORMER_ID>
000194E100000001

> <PUBCHEM_MMFF94_ENERGY>
10.2879

> <PUBCHEM_FEATURE_SELFOVERLAP>
15.223

> <PUBCHEM_SHAPE_FINGERPRINT>
12616999 72 17168157740250084422
12932764 1 18409736127490312317
13167823 11 18343582967118350567
14144814 61 18060144227890442469
14251717 144 18335419058368649970
14252887 29 18060147517956541740
15375358 24 17749111131403155681
15375462 189 18410293583943178730
15757776 16 18409450280368522702
18186145 218 18410009940471940967
200 152 17632578262537153029
20279233 1 17822017522769138329
20442098 301 17989484138827433935
20645477 70 18412546492196010631
21501925 9 18131067112853712689
22485316 2 18410011044283901701
2255824 54 18337397131479561876
23402655 69 18412830178991298749
23559900 14 17560808701495195677
2871803 45 18334298643314184420
300161 21 18202558493264292657
33824 294 18335138708847262250
5374978 207 17561365080496885281
581208 293 18334294296833745496
59682541 52 17972002931292455439
81228 2 17313667031945691965
81539 233 18337390564712163884
94968 8 18408610231952185998

> <PUBCHEM_SHAPE_MULTIPOLES>
282.24
8.85
1.69
1
10.18
0.36
0.02
0.74
-0.24
-1.25
0.31
-0.3
0.25
-0.49

> <PUBCHEM_SHAPE_SELFOVERLAP>
554.713

> <PUBCHEM_SHAPE_VOLUME>
167.4

> <PUBCHEM_COORDINATE_TYPE>
2
5
10

$$$$
