103852
  -OEChem-11232109113D

 41 41  0     1  0  0  0  0  0999 V2000
    4.2082    0.2562   -0.2563 O   0  0  0  0  0  0  0  0  0  0  0  0
    5.9693   -0.8316    0.7696 O   0  0  0  0  0  0  0  0  0  0  0  0
    1.9150   -0.4100   -0.3320 C   0  0  1  0  0  0  0  0  0  0  0  0
    0.9113   -1.5112    0.0244 C   0  0  0  0  0  0  0  0  0  0  0  0
   -0.4818   -1.1904   -0.5261 C   0  0  0  0  0  0  0  0  0  0  0  0
    1.4489    0.9387    0.2393 C   0  0  0  0  0  0  0  0  0  0  0  0
   -0.8941    0.2475   -0.3334 C   0  0  0  0  0  0  0  0  0  0  0  0
   -0.0140    1.1973    0.0270 C   0  0  0  0  0  0  0  0  0  0  0  0
    3.3152   -0.7561    0.1698 C   0  0  0  0  0  0  0  0  0  0  0  0
   -2.3429    0.5569   -0.5692 C   0  0  0  0  0  0  0  0  0  0  0  0
   -3.1710    0.3622    0.6974 C   0  0  0  0  0  0  0  0  0  0  0  0
   -4.5974    0.7811    0.4754 C   0  0  0  0  0  0  0  0  0  0  0  0
   -5.6364    0.0062    0.1112 C   0  0  0  0  0  0  0  0  0  0  0  0
    5.5179    0.0973    0.1134 C   0  0  0  0  0  0  0  0  0  0  0  0
   -7.0439    0.4899   -0.0948 C   0  0  0  0  0  0  0  0  0  0  0  0
   -5.4461   -1.4706   -0.1106 C   0  0  0  0  0  0  0  0  0  0  0  0
    6.3418    1.2368   -0.4049 C   0  0  0  0  0  0  0  0  0  0  0  0
    1.9578   -0.3130   -1.4264 H   0  0  0  0  0  0  0  0  0  0  0  0
    0.8545   -1.6216    1.1155 H   0  0  0  0  0  0  0  0  0  0  0  0
    1.2428   -2.4775   -0.3740 H   0  0  0  0  0  0  0  0  0  0  0  0
   -1.2045   -1.8585   -0.0431 H   0  0  0  0  0  0  0  0  0  0  0  0
   -0.5058   -1.4152   -1.5998 H   0  0  0  0  0  0  0  0  0  0  0  0
    2.0169    1.7487   -0.2341 H   0  0  0  0  0  0  0  0  0  0  0  0
    1.6515    0.9936    1.3161 H   0  0  0  0  0  0  0  0  0  0  0  0
   -0.3545    2.2184    0.1779 H   0  0  0  0  0  0  0  0  0  0  0  0
    3.6324   -1.7190   -0.2481 H   0  0  0  0  0  0  0  0  0  0  0  0
    3.3266   -0.8257    1.2644 H   0  0  0  0  0  0  0  0  0  0  0  0
   -2.4452    1.5933   -0.9195 H   0  0  0  0  0  0  0  0  0  0  0  0
   -2.7269   -0.0684   -1.3854 H   0  0  0  0  0  0  0  0  0  0  0  0
   -3.1036   -0.6683    1.0621 H   0  0  0  0  0  0  0  0  0  0  0  0
   -2.7669    0.9804    1.5101 H   0  0  0  0  0  0  0  0  0  0  0  0
   -4.7863    1.8445    0.6160 H   0  0  0  0  0  0  0  0  0  0  0  0
   -7.3637    0.3082   -1.1258 H   0  0  0  0  0  0  0  0  0  0  0  0
   -7.1333    1.5639    0.0990 H   0  0  0  0  0  0  0  0  0  0  0  0
   -7.7289   -0.0305    0.5822 H   0  0  0  0  0  0  0  0  0  0  0  0
   -5.9233   -2.0348    0.6975 H   0  0  0  0  0  0  0  0  0  0  0  0
   -5.9160   -1.7677   -1.0552 H   0  0  0  0  0  0  0  0  0  0  0  0
   -4.4034   -1.7883   -0.1778 H   0  0  0  0  0  0  0  0  0  0  0  0
    5.9763    2.1779    0.0134 H   0  0  0  0  0  0  0  0  0  0  0  0
    6.2987    1.2579   -1.4967 H   0  0  0  0  0  0  0  0  0  0  0  0
    7.3831    1.1006   -0.0993 H   0  0  0  0  0  0  0  0  0  0  0  0
  1  9  1  0  0  0  0
  1 14  1  0  0  0  0
  2 14  2  0  0  0  0
  3  4  1  0  0  0  0
  3  6  1  0  0  0  0
  3  9  1  0  0  0  0
  3 18  1  0  0  0  0
  4  5  1  0  0  0  0
  4 19  1  0  0  0  0
  4 20  1  0  0  0  0
  5  7  1  0  0  0  0
  5 21  1  0  0  0  0
  5 22  1  0  0  0  0
  6  8  1  0  0  0  0
  6 23  1  0  0  0  0
  6 24  1  0  0  0  0
  7  8  2  0  0  0  0
  7 10  1  0  0  0  0
  8 25  1  0  0  0  0
  9 26  1  0  0  0  0
  9 27  1  0  0  0  0
 10 11  1  0  0  0  0
 10 28  1  0  0  0  0
 10 29  1  0  0  0  0
 11 12  1  0  0  0  0
 11 30  1  0  0  0  0
 11 31  1  0  0  0  0
 12 13  2  0  0  0  0
 12 32  1  0  0  0  0
 13 15  1  0  0  0  0
 13 16  1  0  0  0  0
 14 17  1  0  0  0  0
 15 33  1  0  0  0  0
 15 34  1  0  0  0  0
 15 35  1  0  0  0  0
 16 36  1  0  0  0  0
 16 37  1  0  0  0  0
 16 38  1  0  0  0  0
 17 39  1  0  0  0  0
 17 40  1  0  0  0  0
 17 41  1  0  0  0  0
M  END
> <PUBCHEM_COMPOUND_CID>
103852

> <PUBCHEM_CONFORMER_RMSD>
0.8

> <PUBCHEM_CONFORMER_DIVERSEORDER>
1
178
181
238
86
123
17
58
162
209
2
21
35
37
43
63
7
127
111
215
96
226
173
118
68
202
120
155
30
18
131
240
36
88
44
163
230
203
154
95
135
219
50
39
79
15
156
28
193
234
231
72
81
128
125
12
100
201
232
74
85
126
51
172
93
98
83
103
60
237
75
148
124
217
179
66
161
138
101
32
168
13
225
184
40
104
211
108
117
149
10
102
99
186
167
187
119
158
214
71
87
9
112
65
208
129
5
114
222
218
29
42
47
221
106
78
52
23
224
174
4
176
183
189
216
55
180
144
62
134
185
145
227
213
22
182
210
38
34
56
105
223
97
48
165
140
194
109
46
205
54
200
84
160
166
89
141
228
61
235
142
76
236
110
175
45
53
41
171
152
146
197
130
20
6
113
136
153
27
204
233
122
90
192
25
26
57
33
132
199
164
69
11
49
31
198
8
207
137
94
206
92
139
195
59
229
14
196
115
212
91
191
188
143
157
170
133
67
3
82
220
150
73
116
19
70
151
77
169
64
147
159
107
190
121
80
239
24
177
16

> <PUBCHEM_MMFF94_PARTIAL_CHARGES>
17
1 -0.43
10 0.14
11 0.14
12 -0.29
13 -0.28
14 0.66
15 0.14
16 0.14
17 0.06
2 -0.57
25 0.15
32 0.15
5 0.14
6 0.14
7 -0.28
8 -0.29
9 0.28

> <PUBCHEM_EFFECTIVE_ROTOR_COUNT>
6.8

> <PUBCHEM_PHARMACOPHORE_FEATURES>
3
1 2 acceptor
3 13 15 16 hydrophobe
6 3 4 5 6 7 8 rings

> <PUBCHEM_HEAVY_ATOM_COUNT>
17

> <PUBCHEM_ATOM_DEF_STEREO_COUNT>
0

> <PUBCHEM_ATOM_UDEF_STEREO_COUNT>
1

> <PUBCHEM_BOND_DEF_STEREO_COUNT>
0

> <PUBCHEM_BOND_UDEF_STEREO_COUNT>
0

> <PUBCHEM_ISOTOPIC_ATOM_COUNT>
0

> <PUBCHEM_COMPONENT_COUNT>
1

> <PUBCHEM_CACTVS_TAUTO_COUNT>
1

> <PUBCHEM_CONFORMER_ID>
000195AC00000001

> <PUBCHEM_MMFF94_ENERGY>
14.9968

> <PUBCHEM_FEATURE_SELFOVERLAP>
15.223

> <PUBCHEM_SHAPE_FINGERPRINT>
10354089 29 17632857521136457856
106641 1 18411698824222471074
10968037 39 18272651247665698487
11315181 36 18343867732451525241
12091667 2 17531247258236777521
12236239 1 18411419509603760406
12670543 26 8646776603172619418
12815109 37 18040999527623074515
12916748 109 16917353614868795512
13533116 47 17313096407518092026
13862211 1 18409728460773163818
13899415 154 17775289382743673176
14251718 22 18412546517918107523
14251732 16 18410293657015404648
14251764 18 18410574015221496967
14251764 46 16271928207758403860
15048467 5 18343865524136818824
15183329 4 11383838151283240332
15716309 27 18334293162935960099
17834072 33 18343021120507365549
17834076 25 10879992458482590797
18006028 8 12251901499560922222
19489759 90 15719390616635891605
200 152 18201999920325371841
20281389 69 18410853257343117752
22224240 67 18410007749558864451
23402539 116 17240201028284361711
23557571 272 16370721487613583109
23559900 14 18340200890995219817
23622692 88 17060616715819561901
29717793 49 8935004789629547040
347723 3 8430316835586414621
3545911 37 16128656344979765453
42630746 31 18342178826324449102
42788 4 18410012126204261976
4325135 7 18335422369788227492
4340502 62 16877661258144172914
4463277 17 18411136943695028005
474229 33 18411419509830977551
5486654 2 18343304772847853023
59682541 35 18341618170073286451
59755656 520 18334007315741246543
8209 1 18410012130435945277

> <PUBCHEM_SHAPE_MULTIPOLES>
338.11
17.32
1.36
0.75
0.86
0.26
0.01
-1.69
0.92
-0.06
-0.03
-0.02
0
-0.51

> <PUBCHEM_SHAPE_SELFOVERLAP>
661.346

> <PUBCHEM_SHAPE_VOLUME>
202.5

> <PUBCHEM_COORDINATE_TYPE>
2
5
10

$$$$
