103875
  -OEChem-11232109153D

 28 28  0     1  0  0  0  0  0999 V2000
    3.1982    2.2269    0.3357 N   0  0  0  0  0  0  0  0  0  0  0  0
    2.4122   -1.2049   -0.0628 C   0  0  1  0  0  0  0  0  0  0  0  0
    0.9486   -0.9124    0.3385 C   0  0  0  0  0  0  0  0  0  0  0  0
    0.0173   -0.5103   -0.8137 C   0  0  0  0  0  0  0  0  0  0  0  0
    3.0781   -0.0938   -0.8969 C   0  0  0  0  0  0  0  0  0  0  0  0
    3.2376   -1.5241    1.1911 C   0  0  0  0  0  0  0  0  0  0  0  0
   -1.3871   -0.1726   -0.3791 C   0  0  0  0  0  0  0  0  0  0  0  0
   -2.3427   -1.1761   -0.3257 C   0  0  0  0  0  0  0  0  0  0  0  0
   -1.6989    1.1350   -0.0399 C   0  0  0  0  0  0  0  0  0  0  0  0
    3.1447    1.2024   -0.2062 C   0  0  0  0  0  0  0  0  0  0  0  0
   -3.6413   -0.8642    0.0763 C   0  0  0  0  0  0  0  0  0  0  0  0
   -2.9977    1.4468    0.3623 C   0  0  0  0  0  0  0  0  0  0  0  0
   -3.9688    0.4472    0.4204 C   0  0  0  0  0  0  0  0  0  0  0  0
    2.4053   -2.1091   -0.6867 H   0  0  0  0  0  0  0  0  0  0  0  0
    0.5360   -1.8020    0.8335 H   0  0  0  0  0  0  0  0  0  0  0  0
    0.9336   -0.1191    1.0980 H   0  0  0  0  0  0  0  0  0  0  0  0
    0.4195    0.3586   -1.3474 H   0  0  0  0  0  0  0  0  0  0  0  0
   -0.0140   -1.3186   -1.5558 H   0  0  0  0  0  0  0  0  0  0  0  0
    4.0981   -0.4071   -1.1536 H   0  0  0  0  0  0  0  0  0  0  0  0
    2.5581    0.0240   -1.8539 H   0  0  0  0  0  0  0  0  0  0  0  0
    2.8201   -2.3911    1.7144 H   0  0  0  0  0  0  0  0  0  0  0  0
    3.2517   -0.6856    1.8951 H   0  0  0  0  0  0  0  0  0  0  0  0
    4.2724   -1.7646    0.9252 H   0  0  0  0  0  0  0  0  0  0  0  0
   -2.0965   -2.2006   -0.5897 H   0  0  0  0  0  0  0  0  0  0  0  0
   -0.9490    1.9200   -0.0793 H   0  0  0  0  0  0  0  0  0  0  0  0
   -4.3974   -1.6425    0.1222 H   0  0  0  0  0  0  0  0  0  0  0  0
   -3.2527    2.4678    0.6310 H   0  0  0  0  0  0  0  0  0  0  0  0
   -4.9800    0.6900    0.7339 H   0  0  0  0  0  0  0  0  0  0  0  0
  1 10  3  0  0  0  0
  2  3  1  0  0  0  0
  2  5  1  0  0  0  0
  2  6  1  0  0  0  0
  2 14  1  0  0  0  0
  3  4  1  0  0  0  0
  3 15  1  0  0  0  0
  3 16  1  0  0  0  0
  4  7  1  0  0  0  0
  4 17  1  0  0  0  0
  4 18  1  0  0  0  0
  5 10  1  0  0  0  0
  5 19  1  0  0  0  0
  5 20  1  0  0  0  0
  6 21  1  0  0  0  0
  6 22  1  0  0  0  0
  6 23  1  0  0  0  0
  7  8  2  0  0  0  0
  7  9  1  0  0  0  0
  8 11  1  0  0  0  0
  8 24  1  0  0  0  0
  9 12  2  0  0  0  0
  9 25  1  0  0  0  0
 11 13  2  0  0  0  0
 11 26  1  0  0  0  0
 12 13  1  0  0  0  0
 12 27  1  0  0  0  0
 13 28  1  0  0  0  0
M  END
> <PUBCHEM_COMPOUND_CID>
103875

> <PUBCHEM_CONFORMER_RMSD>
0.6

> <PUBCHEM_CONFORMER_DIVERSEORDER>
1
35
20
6
13
29
32
17
33
4
21
24
7
15
34
27
31
30
16
2
9
8
28
26
5
18
10
14
12
19
25
23
3
11
22

> <PUBCHEM_MMFF94_PARTIAL_CHARGES>
15
1 -0.56
10 0.36
11 -0.15
12 -0.15
13 -0.15
24 0.15
25 0.15
26 0.15
27 0.15
28 0.15
4 0.14
5 0.2
7 -0.14
8 -0.15
9 -0.15

> <PUBCHEM_EFFECTIVE_ROTOR_COUNT>
4

> <PUBCHEM_PHARMACOPHORE_FEATURES>
4
1 1 acceptor
1 6 hydrophobe
4 2 3 4 5 hydrophobe
6 7 8 9 11 12 13 rings

> <PUBCHEM_HEAVY_ATOM_COUNT>
13

> <PUBCHEM_ATOM_DEF_STEREO_COUNT>
0

> <PUBCHEM_ATOM_UDEF_STEREO_COUNT>
1

> <PUBCHEM_BOND_DEF_STEREO_COUNT>
0

> <PUBCHEM_BOND_UDEF_STEREO_COUNT>
0

> <PUBCHEM_ISOTOPIC_ATOM_COUNT>
0

> <PUBCHEM_COMPONENT_COUNT>
1

> <PUBCHEM_CACTVS_TAUTO_COUNT>
1

> <PUBCHEM_CONFORMER_ID>
000195C300000001

> <PUBCHEM_MMFF94_ENERGY>
23.849

> <PUBCHEM_FEATURE_SELFOVERLAP>
20.329

> <PUBCHEM_SHAPE_FINGERPRINT>
10608611 8 18411982429650965165
10980938 120 18410858780486242724
11715629 250 18413103987430215636
12162725 195 18412824659689116027
12251169 10 18337386037452519970
12932764 1 17968095274581171350
13296908 3 16443342040158261495
13533116 47 18040997298382587275
14144814 61 18409731742212522111
14350558 41 8070033263691186316
15536298 74 18343024410584293652
15669948 3 18201996672628970199
15775835 57 18412268354345637244
17041 49 18264763264800197890
17802600 8 18335978688449436452
17834072 32 18126573323480850785
18186145 218 18259987054570921694
19050596 39 18407759218315498747
19422 9 18408323259232960547
20279233 1 14345799344047019451
20528008 55 18260829297984610855
20559304 39 18338234856550797258
20671657 1 18188495778352523068
21652331 79 18412548729826693705
2255824 54 17822017484600034346
22854114 111 18335420175339513672
22959321 4 18334294257999795755
23559900 14 17986961755894993166
3248919 1 18201430337977399983
3286 77 18040992900151199570
474 4 17969789768329409044
5104073 3 18408608050277462649
5374978 207 18408321081911005139
6333272 397 18044379550520236308
7097593 13 17973155128266153579
7364860 26 18412264996013696630

> <PUBCHEM_SHAPE_MULTIPOLES>
262.55
7.87
1.85
0.9
0.72
0.66
-0.04
0.94
-1.08
-1.12
-0.32
-0.46
-0.17
-0.57

> <PUBCHEM_SHAPE_SELFOVERLAP>
524.958

> <PUBCHEM_SHAPE_VOLUME>
153.2

> <PUBCHEM_COORDINATE_TYPE>
2
5
10

$$$$
