104307
  -OEChem-11232108573D

 25 24  0     0  0  0  0  0  0999 V2000
   -3.8303    0.3548   -0.7162 O   0  0  0  0  0  0  0  0  0  0  0  0
    1.3127    0.3936   -0.7942 C   0  0  0  0  0  0  0  0  0  0  0  0
    2.7864    0.1851   -0.3986 C   0  0  0  0  0  0  0  0  0  0  0  0
    0.3205   -0.1262    0.2509 C   0  0  0  0  0  0  0  0  0  0  0  0
   -1.1267    0.0846   -0.2080 C   0  0  0  0  0  0  0  0  0  0  0  0
    3.0601   -1.3059   -0.1857 C   0  0  0  0  0  0  0  0  0  0  0  0
    3.1700    0.9644    0.8602 C   0  0  0  0  0  0  0  0  0  0  0  0
   -2.1396   -0.3922    0.8283 C   0  0  0  0  0  0  0  0  0  0  0  0
   -3.5530   -0.1582    0.3633 C   0  0  0  0  0  0  0  0  0  0  0  0
    1.1362    1.4632   -0.9645 H   0  0  0  0  0  0  0  0  0  0  0  0
    1.1259   -0.1089   -1.7519 H   0  0  0  0  0  0  0  0  0  0  0  0
    3.4098    0.5400   -1.2286 H   0  0  0  0  0  0  0  0  0  0  0  0
    0.4675   -1.1961    0.4303 H   0  0  0  0  0  0  0  0  0  0  0  0
    0.4667    0.3916    1.2049 H   0  0  0  0  0  0  0  0  0  0  0  0
   -1.2893   -0.4469   -1.1544 H   0  0  0  0  0  0  0  0  0  0  0  0
   -1.2886    1.1502   -0.4155 H   0  0  0  0  0  0  0  0  0  0  0  0
    2.5947   -1.6928    0.7262 H   0  0  0  0  0  0  0  0  0  0  0  0
    2.7074   -1.8986   -1.0363 H   0  0  0  0  0  0  0  0  0  0  0  0
    4.1384   -1.4777   -0.0909 H   0  0  0  0  0  0  0  0  0  0  0  0
    4.2476    0.8865    1.0414 H   0  0  0  0  0  0  0  0  0  0  0  0
    2.6603    0.5886    1.7528 H   0  0  0  0  0  0  0  0  0  0  0  0
    2.9274    2.0262    0.7482 H   0  0  0  0  0  0  0  0  0  0  0  0
   -2.0218   -1.4641    1.0183 H   0  0  0  0  0  0  0  0  0  0  0  0
   -2.0059    0.1437    1.7738 H   0  0  0  0  0  0  0  0  0  0  0  0
   -4.3440   -0.4792    1.0619 H   0  0  0  0  0  0  0  0  0  0  0  0
  1  9  2  0  0  0  0
  2  3  1  0  0  0  0
  2  4  1  0  0  0  0
  2 10  1  0  0  0  0
  2 11  1  0  0  0  0
  3  6  1  0  0  0  0
  3  7  1  0  0  0  0
  3 12  1  0  0  0  0
  4  5  1  0  0  0  0
  4 13  1  0  0  0  0
  4 14  1  0  0  0  0
  5  8  1  0  0  0  0
  5 15  1  0  0  0  0
  5 16  1  0  0  0  0
  6 17  1  0  0  0  0
  6 18  1  0  0  0  0
  6 19  1  0  0  0  0
  7 20  1  0  0  0  0
  7 21  1  0  0  0  0
  7 22  1  0  0  0  0
  8  9  1  0  0  0  0
  8 23  1  0  0  0  0
  8 24  1  0  0  0  0
  9 25  1  0  0  0  0
M  END
> <PUBCHEM_COMPOUND_CID>
104307

> <PUBCHEM_CONFORMER_RMSD>
0.6

> <PUBCHEM_CONFORMER_DIVERSEORDER>
1
5
8
6
2
7
4
3
9

> <PUBCHEM_MMFF94_PARTIAL_CHARGES>
4
1 -0.57
25 0.06
8 0.06
9 0.45

> <PUBCHEM_EFFECTIVE_ROTOR_COUNT>
5

> <PUBCHEM_PHARMACOPHORE_FEATURES>
3
1 1 acceptor
3 3 6 7 hydrophobe
5 2 3 4 5 8 hydrophobe

> <PUBCHEM_HEAVY_ATOM_COUNT>
9

> <PUBCHEM_ATOM_DEF_STEREO_COUNT>
0

> <PUBCHEM_ATOM_UDEF_STEREO_COUNT>
0

> <PUBCHEM_BOND_DEF_STEREO_COUNT>
0

> <PUBCHEM_BOND_UDEF_STEREO_COUNT>
0

> <PUBCHEM_ISOTOPIC_ATOM_COUNT>
0

> <PUBCHEM_COMPONENT_COUNT>
1

> <PUBCHEM_CACTVS_TAUTO_COUNT>
2

> <PUBCHEM_CONFORMER_ID>
0001977300000001

> <PUBCHEM_MMFF94_ENERGY>
4.5215

> <PUBCHEM_FEATURE_SELFOVERLAP>
15.227

> <PUBCHEM_SHAPE_FINGERPRINT>
11062470 55 18060702801219344225
12932764 1 18202286909227798388
14325111 11 17023190460869566619
18186145 218 18202292398064094739
190213 19 18187085061546504833
20279233 1 18260269667703364274
20645477 70 18411700941800201094
21293036 1 12463572910908255360
22169311 21 18410011061100046835
22485316 2 18343861130379896367
3248919 1 18113909276867628985

> <PUBCHEM_SHAPE_MULTIPOLES>
179.35
7.24
0.97
0.93
3.74
0.09
-0.02
-0.09
0.16
-1.07
0.13
0.14
-0.06
0.22

> <PUBCHEM_SHAPE_SELFOVERLAP>
320.639

> <PUBCHEM_SHAPE_VOLUME>
116.4

> <PUBCHEM_COORDINATE_TYPE>
2
5
10

$$$$
