104421
  -OEChem-11232108503D

 20 20  0     0  0  0  0  0  0999 V2000
   -1.7138    0.5821   -0.0039 O   0  0  0  0  0  0  0  0  0  0  0  0
    0.1970   -0.7398   -0.0008 N   0  0  0  0  0  0  0  0  0  0  0  0
    1.7678    1.5837    0.0015 N   0  0  0  0  0  0  0  0  0  0  0  0
   -2.4407   -0.6430   -0.0051 C   0  0  0  0  0  0  0  0  0  0  0  0
   -0.3506    0.4918   -0.0014 C   0  0  0  0  0  0  0  0  0  0  0  0
    1.5438   -0.7892    0.0006 C   0  0  0  0  0  0  0  0  0  0  0  0
   -3.9231   -0.3368    0.0071 C   0  0  0  0  0  0  0  0  0  0  0  0
    0.4209    1.6330   -0.0002 C   0  0  0  0  0  0  0  0  0  0  0  0
    2.3154    0.3520    0.0018 C   0  0  0  0  0  0  0  0  0  0  0  0
    2.1832   -2.1338    0.0004 C   0  0  0  0  0  0  0  0  0  0  0  0
   -2.2009   -1.2217   -0.9051 H   0  0  0  0  0  0  0  0  0  0  0  0
   -2.1898   -1.2313    0.8858 H   0  0  0  0  0  0  0  0  0  0  0  0
   -4.5130   -1.2577    0.0065 H   0  0  0  0  0  0  0  0  0  0  0  0
   -4.1881    0.2518    0.8917 H   0  0  0  0  0  0  0  0  0  0  0  0
   -4.2007    0.2611   -0.8673 H   0  0  0  0  0  0  0  0  0  0  0  0
   -0.0149    2.6249   -0.0008 H   0  0  0  0  0  0  0  0  0  0  0  0
    3.3986    0.3206    0.0030 H   0  0  0  0  0  0  0  0  0  0  0  0
    2.8064   -2.2593   -0.8907 H   0  0  0  0  0  0  0  0  0  0  0  0
    2.8053   -2.2601    0.8922 H   0  0  0  0  0  0  0  0  0  0  0  0
    1.4289   -2.9275   -0.0004 H   0  0  0  0  0  0  0  0  0  0  0  0
  1  4  1  0  0  0  0
  1  5  1  0  0  0  0
  2  5  2  0  0  0  0
  2  6  1  0  0  0  0
  3  8  2  0  0  0  0
  3  9  1  0  0  0  0
  4  7  1  0  0  0  0
  4 11  1  0  0  0  0
  4 12  1  0  0  0  0
  5  8  1  0  0  0  0
  6  9  2  0  0  0  0
  6 10  1  0  0  0  0
  7 13  1  0  0  0  0
  7 14  1  0  0  0  0
  7 15  1  0  0  0  0
  8 16  1  0  0  0  0
  9 17  1  0  0  0  0
 10 18  1  0  0  0  0
 10 19  1  0  0  0  0
 10 20  1  0  0  0  0
M  END
> <PUBCHEM_COMPOUND_CID>
104421

> <PUBCHEM_CONFORMER_RMSD>
0.4

> <PUBCHEM_CONFORMER_DIVERSEORDER>
1
8
9
3
7
2
6
4
5

> <PUBCHEM_MMFF94_PARTIAL_CHARGES>
11
1 -0.36
10 0.14
16 0.15
17 0.15
2 -0.62
3 -0.62
4 0.28
5 0.39
6 0.17
8 0.16
9 0.16

> <PUBCHEM_EFFECTIVE_ROTOR_COUNT>
2

> <PUBCHEM_PHARMACOPHORE_FEATURES>
2
1 3 acceptor
6 2 3 5 6 8 9 rings

> <PUBCHEM_HEAVY_ATOM_COUNT>
10

> <PUBCHEM_ATOM_DEF_STEREO_COUNT>
0

> <PUBCHEM_ATOM_UDEF_STEREO_COUNT>
0

> <PUBCHEM_BOND_DEF_STEREO_COUNT>
0

> <PUBCHEM_BOND_UDEF_STEREO_COUNT>
0

> <PUBCHEM_ISOTOPIC_ATOM_COUNT>
0

> <PUBCHEM_COMPONENT_COUNT>
1

> <PUBCHEM_CACTVS_TAUTO_COUNT>
1

> <PUBCHEM_CONFORMER_ID>
000197E500000001

> <PUBCHEM_MMFF94_ENERGY>
24.0011

> <PUBCHEM_FEATURE_SELFOVERLAP>
10.148

> <PUBCHEM_SHAPE_FINGERPRINT>
12932764 1 17704066335253046969
14128692 85 18267030457586813294
14325111 11 18338797918178487077
161256 15 18408884014447375300
16945 1 18410574028175120036
20201158 50 18334575758841268827
20645477 70 18410568484063775463
20653091 64 18411140190943362208
20871998 22 18127132974598448502
21040471 1 17906452491253002212
21501925 9 18337941312336209450
23402655 69 18412254056921631733
23552333 60 18202005438377224120
23552423 10 18189060806547849918
2748010 2 18267012852410352540
29004967 10 18408886239171745896

> <PUBCHEM_SHAPE_MULTIPOLES>
189.96
4.78
1.81
0.59
5.14
0.18
0
1.45
0.01
-1.46
0
0
0.01
0

> <PUBCHEM_SHAPE_SELFOVERLAP>
381.932

> <PUBCHEM_SHAPE_VOLUME>
112.4

> <PUBCHEM_COORDINATE_TYPE>
2
5
10

$$$$
