104598
  -OEChem-11232109473D

 29 29  0     0  0  0  0  0  0999 V2000
    2.7305   -0.2486   -0.2544 O   0  0  0  0  0  0  0  0  0  0  0  0
   -2.7506    1.8004    0.1567 O   0  0  0  0  0  0  0  0  0  0  0  0
   -3.4957   -0.8665   -0.0782 O   0  0  0  0  0  0  0  0  0  0  0  0
    4.6383    0.7640    0.5653 O   0  0  0  0  0  0  0  0  0  0  0  0
    0.4953    0.1462    0.4557 C   0  0  0  0  0  0  0  0  0  0  0  0
   -0.4726    1.1489    0.3945 C   0  0  0  0  0  0  0  0  0  0  0  0
   -1.8146    0.8126    0.2157 C   0  0  0  0  0  0  0  0  0  0  0  0
    1.9298    0.5057    0.6473 C   0  0  0  0  0  0  0  0  0  0  0  0
    0.1212   -1.1924    0.3380 C   0  0  0  0  0  0  0  0  0  0  0  0
   -2.1884   -0.5261    0.0980 C   0  0  0  0  0  0  0  0  0  0  0  0
   -1.2206   -1.5286    0.1593 C   0  0  0  0  0  0  0  0  0  0  0  0
    4.0767   -0.0193   -0.1885 C   0  0  0  0  0  0  0  0  0  0  0  0
   -3.0444    2.3390   -1.1310 C   0  0  0  0  0  0  0  0  0  0  0  0
   -3.7941   -2.2567   -0.1897 C   0  0  0  0  0  0  0  0  0  0  0  0
    4.7892   -0.8785   -1.1887 C   0  0  0  0  0  0  0  0  0  0  0  0
   -0.1891    2.1945    0.4876 H   0  0  0  0  0  0  0  0  0  0  0  0
    2.0911    1.5733    0.4550 H   0  0  0  0  0  0  0  0  0  0  0  0
    2.2206    0.2833    1.6812 H   0  0  0  0  0  0  0  0  0  0  0  0
    0.8619   -1.9862    0.3917 H   0  0  0  0  0  0  0  0  0  0  0  0
   -1.4377   -2.5881    0.0773 H   0  0  0  0  0  0  0  0  0  0  0  0
   -3.4281    1.5594   -1.7967 H   0  0  0  0  0  0  0  0  0  0  0  0
   -2.1519    2.7994   -1.5665 H   0  0  0  0  0  0  0  0  0  0  0  0
   -3.8129    3.1079   -1.0135 H   0  0  0  0  0  0  0  0  0  0  0  0
   -3.5441   -2.7982    0.7291 H   0  0  0  0  0  0  0  0  0  0  0  0
   -3.3265   -2.7001   -1.0755 H   0  0  0  0  0  0  0  0  0  0  0  0
   -4.8772   -2.3439   -0.3251 H   0  0  0  0  0  0  0  0  0  0  0  0
    4.4486   -0.6324   -2.1975 H   0  0  0  0  0  0  0  0  0  0  0  0
    4.6073   -1.9331   -0.9671 H   0  0  0  0  0  0  0  0  0  0  0  0
    5.8649   -0.6901   -1.1281 H   0  0  0  0  0  0  0  0  0  0  0  0
  1  8  1  0  0  0  0
  1 12  1  0  0  0  0
  2  7  1  0  0  0  0
  2 13  1  0  0  0  0
  3 10  1  0  0  0  0
  3 14  1  0  0  0  0
  4 12  2  0  0  0  0
  5  6  2  0  0  0  0
  5  8  1  0  0  0  0
  5  9  1  0  0  0  0
  6  7  1  0  0  0  0
  6 16  1  0  0  0  0
  7 10  2  0  0  0  0
  8 17  1  0  0  0  0
  8 18  1  0  0  0  0
  9 11  2  0  0  0  0
  9 19  1  0  0  0  0
 10 11  1  0  0  0  0
 11 20  1  0  0  0  0
 12 15  1  0  0  0  0
 13 21  1  0  0  0  0
 13 22  1  0  0  0  0
 13 23  1  0  0  0  0
 14 24  1  0  0  0  0
 14 25  1  0  0  0  0
 14 26  1  0  0  0  0
 15 27  1  0  0  0  0
 15 28  1  0  0  0  0
 15 29  1  0  0  0  0
M  END
> <PUBCHEM_COMPOUND_CID>
104598

> <PUBCHEM_CONFORMER_RMSD>
0.6

> <PUBCHEM_CONFORMER_DIVERSEORDER>
5
58
22
48
46
59
47
66
18
60
69
38
26
8
63
52
27
62
20
28
37
56
43
51
32
64
36
53
68
19
45
7
23
33
67
17
24
54
6
65
40
49
2
14
30
41
50
9
13
61
44
29
21
11
1
10
16
12
25
55
42
34
39
35
3
4
15
31
57

> <PUBCHEM_MMFF94_PARTIAL_CHARGES>
18
1 -0.43
10 0.08
11 -0.15
12 0.66
13 0.28
14 0.28
15 0.06
16 0.15
19 0.15
2 -0.36
20 0.15
3 -0.36
4 -0.57
5 -0.14
6 -0.15
7 0.08
8 0.42
9 -0.15

> <PUBCHEM_EFFECTIVE_ROTOR_COUNT>
5

> <PUBCHEM_PHARMACOPHORE_FEATURES>
4
1 2 acceptor
1 3 acceptor
1 4 acceptor
6 5 6 7 9 10 11 rings

> <PUBCHEM_HEAVY_ATOM_COUNT>
15

> <PUBCHEM_ATOM_DEF_STEREO_COUNT>
0

> <PUBCHEM_ATOM_UDEF_STEREO_COUNT>
0

> <PUBCHEM_BOND_DEF_STEREO_COUNT>
0

> <PUBCHEM_BOND_UDEF_STEREO_COUNT>
0

> <PUBCHEM_ISOTOPIC_ATOM_COUNT>
0

> <PUBCHEM_COMPONENT_COUNT>
1

> <PUBCHEM_CACTVS_TAUTO_COUNT>
1

> <PUBCHEM_CONFORMER_ID>
0001989600000005

> <PUBCHEM_MMFF94_ENERGY>
52.381

> <PUBCHEM_FEATURE_SELFOVERLAP>
20.302

> <PUBCHEM_SHAPE_FINGERPRINT>
10014705 185 18260828172408228436
10680689 15 18335148578587130472
11206711 2 18337098034557789421
12032990 46 18271811275577805683
12186901 62 18410013212909998847
12251169 10 10303818695804423243
13296908 3 18060423508486842658
16945 1 18335688490694776203
17870717 6 18129116549609569534
18186145 218 18342742871388782440
19026448 4 18130786755080123920
19141452 34 17702669994204313663
1986462 14 18412831269933772606
200 152 16486969583437515273
20325693 3 18335149656455155716
20510252 161 18343584053096275921
20645477 56 18336549326162462281
20645477 70 17561092380491937806
20871999 31 18408886239166555612
21065201 7 18409444778721314034
21501502 16 18189606155715145779
22094290 60 18408886260720480795
22943178 12 18202278113451306792
23402539 116 18337946891678224407
23557571 272 18341623593899367876
23559900 14 18200592502481641650
2748010 2 18198603584093400657
3268164 11 18335132111582278127
4175511 318 18187643548802474869
5104073 3 18272370858857045002
559249 180 18262513672869293346
573450 72 18187350014026712402
58051976 100 18409731750691563615
6049 1 18131060580171727632
68521 5 18335134328423660439
9709674 26 18341338868155049502

> <PUBCHEM_SHAPE_MULTIPOLES>
285.22
8.66
2.1
0.88
9.54
0.2
-0.17
-1.04
-2.23
-3.11
-0.42
0.34
0.15
0.86

> <PUBCHEM_SHAPE_SELFOVERLAP>
582.373

> <PUBCHEM_SHAPE_VOLUME>
166

> <PUBCHEM_COORDINATE_TYPE>
2
5
10

$$$$
