104722
  -OEChem-11232108593D

 21 21  0     0  0  0  0  0  0999 V2000
   -2.7285    0.0263    0.5392 O   0  0  0  0  0  0  0  0  0  0  0  0
    0.5663    1.0331    0.0888 N   0  0  0  0  0  0  0  0  0  0  0  0
    1.0711   -1.7185   -0.1114 N   0  0  0  0  0  0  0  0  0  0  0  0
   -0.4300    0.1281    0.0197 C   0  0  0  0  0  0  0  0  0  0  0  0
   -0.1821   -1.2234   -0.0786 C   0  0  0  0  0  0  0  0  0  0  0  0
    1.8196    0.5380    0.0558 C   0  0  0  0  0  0  0  0  0  0  0  0
   -1.7767    0.6726    0.0561 C   0  0  0  0  0  0  0  0  0  0  0  0
   -1.2926   -2.2152   -0.1545 C   0  0  0  0  0  0  0  0  0  0  0  0
    2.0674   -0.8136   -0.0426 C   0  0  0  0  0  0  0  0  0  0  0  0
    2.9456    1.5092    0.1306 C   0  0  0  0  0  0  0  0  0  0  0  0
   -2.0601    2.0634   -0.5030 C   0  0  0  0  0  0  0  0  0  0  0  0
   -1.8192   -2.2874    0.8019 H   0  0  0  0  0  0  0  0  0  0  0  0
   -1.9951   -1.9681   -0.9567 H   0  0  0  0  0  0  0  0  0  0  0  0
   -0.8966   -3.2125   -0.3782 H   0  0  0  0  0  0  0  0  0  0  0  0
    3.0719   -1.2193   -0.0695 H   0  0  0  0  0  0  0  0  0  0  0  0
    2.5740    2.5366    0.2037 H   0  0  0  0  0  0  0  0  0  0  0  0
    3.5629    1.3099    1.0122 H   0  0  0  0  0  0  0  0  0  0  0  0
    3.5696    1.4389   -0.7659 H   0  0  0  0  0  0  0  0  0  0  0  0
   -1.3160    2.3394   -1.2550 H   0  0  0  0  0  0  0  0  0  0  0  0
   -2.0501    2.7896    0.3133 H   0  0  0  0  0  0  0  0  0  0  0  0
   -3.0399    2.0606   -0.9891 H   0  0  0  0  0  0  0  0  0  0  0  0
  1  7  2  0  0  0  0
  2  4  2  0  0  0  0
  2  6  1  0  0  0  0
  3  5  2  0  0  0  0
  3  9  1  0  0  0  0
  4  5  1  0  0  0  0
  4  7  1  0  0  0  0
  5  8  1  0  0  0  0
  6  9  2  0  0  0  0
  6 10  1  0  0  0  0
  7 11  1  0  0  0  0
  8 12  1  0  0  0  0
  8 13  1  0  0  0  0
  8 14  1  0  0  0  0
  9 15  1  0  0  0  0
 10 16  1  0  0  0  0
 10 17  1  0  0  0  0
 10 18  1  0  0  0  0
 11 19  1  0  0  0  0
 11 20  1  0  0  0  0
 11 21  1  0  0  0  0
M  END
> <PUBCHEM_COMPOUND_CID>
104722

> <PUBCHEM_CONFORMER_RMSD>
0.4

> <PUBCHEM_CONFORMER_DIVERSEORDER>
3
1
2
4

> <PUBCHEM_MMFF94_PARTIAL_CHARGES>
12
1 -0.57
10 0.14
11 0.06
15 0.15
2 -0.62
3 -0.62
4 0.4
5 0.17
6 0.17
7 0.42
8 0.14
9 0.16

> <PUBCHEM_EFFECTIVE_ROTOR_COUNT>
1

> <PUBCHEM_PHARMACOPHORE_FEATURES>
4
1 1 acceptor
1 2 acceptor
1 3 acceptor
6 2 3 4 5 6 9 rings

> <PUBCHEM_HEAVY_ATOM_COUNT>
11

> <PUBCHEM_ATOM_DEF_STEREO_COUNT>
0

> <PUBCHEM_ATOM_UDEF_STEREO_COUNT>
0

> <PUBCHEM_BOND_DEF_STEREO_COUNT>
0

> <PUBCHEM_BOND_UDEF_STEREO_COUNT>
0

> <PUBCHEM_ISOTOPIC_ATOM_COUNT>
0

> <PUBCHEM_COMPONENT_COUNT>
1

> <PUBCHEM_CACTVS_TAUTO_COUNT>
2

> <PUBCHEM_CONFORMER_ID>
0001991200000003

> <PUBCHEM_MMFF94_ENERGY>
29.6773

> <PUBCHEM_FEATURE_SELFOVERLAP>
20.301

> <PUBCHEM_SHAPE_FINGERPRINT>
1 1 18122058706850129887
11206711 2 18124593338808025964
12423570 1 16103574633603452987
13380535 21 18341066201849931030
13380535 76 18412538842711602118
14325111 11 18410856538254929217
14648413 74 18048036264058932369
16945 1 18409728490811424758
193761 8 18411134740619690550
19973954 147 18265336101346665997
20871998 184 18055360385715271623
21040471 1 18411136918114920342
21501502 16 18340483464961253382
23402655 69 17907561542293767829
23559900 14 18127142884011264518
241688 4 16106136890664350939
2748010 2 18265054639222988029
5084963 1 18130500825831904795
5255222 1 18341610472705791057
6333449 129 18198339756962852332

> <PUBCHEM_SHAPE_MULTIPOLES>
210.54
3.72
2.29
0.64
0.82
0.37
0.01
-1.63
-0.21
-0.6
0.27
-0.09
-0.05
0.21

> <PUBCHEM_SHAPE_SELFOVERLAP>
434.055

> <PUBCHEM_SHAPE_VOLUME>
121.9

> <PUBCHEM_COORDINATE_TYPE>
2
5
10

$$$$
