104721
  -OEChem-11232109063D

 21 21  0     0  0  0  0  0  0999 V2000
   -2.7083   -0.7142   -0.5024 O   0  0  0  0  0  0  0  0  0  0  0  0
    1.4696   -1.0105    0.1008 N   0  0  0  0  0  0  0  0  0  0  0  0
    0.0357    1.3872   -0.1462 N   0  0  0  0  0  0  0  0  0  0  0  0
    0.1221   -0.9833    0.0852 C   0  0  0  0  0  0  0  0  0  0  0  0
   -0.5822    0.1944   -0.0360 C   0  0  0  0  0  0  0  0  0  0  0  0
    2.0874    0.1821   -0.0097 C   0  0  0  0  0  0  0  0  0  0  0  0
   -0.5724   -2.2968    0.2063 C   0  0  0  0  0  0  0  0  0  0  0  0
   -2.0346    0.2354   -0.0536 C   0  0  0  0  0  0  0  0  0  0  0  0
    1.3832    1.3598   -0.1309 C   0  0  0  0  0  0  0  0  0  0  0  0
    3.5763    0.1902    0.0041 C   0  0  0  0  0  0  0  0  0  0  0  0
   -2.7768    1.4557    0.4823 C   0  0  0  0  0  0  0  0  0  0  0  0
   -1.3061   -2.2876    1.0186 H   0  0  0  0  0  0  0  0  0  0  0  0
   -1.0537   -2.5737   -0.7365 H   0  0  0  0  0  0  0  0  0  0  0  0
    0.1491   -3.0876    0.4420 H   0  0  0  0  0  0  0  0  0  0  0  0
    1.8725    2.3227   -0.2198 H   0  0  0  0  0  0  0  0  0  0  0  0
    3.9739   -0.8251    0.1056 H   0  0  0  0  0  0  0  0  0  0  0  0
    3.9638    0.6128   -0.9283 H   0  0  0  0  0  0  0  0  0  0  0  0
    3.9464    0.7834    0.8463 H   0  0  0  0  0  0  0  0  0  0  0  0
   -3.0295    2.1184   -0.3488 H   0  0  0  0  0  0  0  0  0  0  0  0
   -2.1661    1.9922    1.2134 H   0  0  0  0  0  0  0  0  0  0  0  0
   -3.6889    1.1258    0.9882 H   0  0  0  0  0  0  0  0  0  0  0  0
  1  8  2  0  0  0  0
  2  4  2  0  0  0  0
  2  6  1  0  0  0  0
  3  5  2  0  0  0  0
  3  9  1  0  0  0  0
  4  5  1  0  0  0  0
  4  7  1  0  0  0  0
  5  8  1  0  0  0  0
  6  9  2  0  0  0  0
  6 10  1  0  0  0  0
  7 12  1  0  0  0  0
  7 13  1  0  0  0  0
  7 14  1  0  0  0  0
  8 11  1  0  0  0  0
  9 15  1  0  0  0  0
 10 16  1  0  0  0  0
 10 17  1  0  0  0  0
 10 18  1  0  0  0  0
 11 19  1  0  0  0  0
 11 20  1  0  0  0  0
 11 21  1  0  0  0  0
M  END
> <PUBCHEM_COMPOUND_CID>
104721

> <PUBCHEM_CONFORMER_RMSD>
0.4

> <PUBCHEM_CONFORMER_DIVERSEORDER>
4
2
1
3

> <PUBCHEM_MMFF94_PARTIAL_CHARGES>
12
1 -0.57
10 0.14
11 0.06
15 0.15
2 -0.62
3 -0.62
4 0.17
5 0.4
6 0.17
7 0.14
8 0.42
9 0.16

> <PUBCHEM_EFFECTIVE_ROTOR_COUNT>
1

> <PUBCHEM_PHARMACOPHORE_FEATURES>
4
1 1 acceptor
1 2 acceptor
1 3 acceptor
6 2 3 4 5 6 9 rings

> <PUBCHEM_HEAVY_ATOM_COUNT>
11

> <PUBCHEM_ATOM_DEF_STEREO_COUNT>
0

> <PUBCHEM_ATOM_UDEF_STEREO_COUNT>
0

> <PUBCHEM_BOND_DEF_STEREO_COUNT>
0

> <PUBCHEM_BOND_UDEF_STEREO_COUNT>
0

> <PUBCHEM_ISOTOPIC_ATOM_COUNT>
0

> <PUBCHEM_COMPONENT_COUNT>
1

> <PUBCHEM_CACTVS_TAUTO_COUNT>
2

> <PUBCHEM_CONFORMER_ID>
0001991100000004

> <PUBCHEM_MMFF94_ENERGY>
29.7123

> <PUBCHEM_FEATURE_SELFOVERLAP>
20.301

> <PUBCHEM_SHAPE_FINGERPRINT>
13380535 76 18411417319471568062
14325111 11 18411138030511599408
14993402 34 18334573559807249468
15775835 57 18340772550498641377
161256 15 17834404423040762079
16945 1 18339082699815844002
193761 8 17832989729680830636
20871998 184 18128542758689564678
21040471 1 18410013268702382024
23235685 24 18410570673921706416
23402539 116 18271514403354264247
23402655 69 18195792000250110429
23552423 10 18192431879012774135
23559900 14 18342183267953200764
2748010 2 18047466721446425060
5084963 1 18272931652256731001
528886 8 18410288077889953401
63268167 104 18340770321363031713

> <PUBCHEM_SHAPE_MULTIPOLES>
210.54
4.35
1.86
0.64
1.07
0.68
-0.01
-1.15
-0.06
-0.6
-0.13
-0.1
-0.01
-0.25

> <PUBCHEM_SHAPE_SELFOVERLAP>
434.066

> <PUBCHEM_SHAPE_VOLUME>
121.7

> <PUBCHEM_COORDINATE_TYPE>
2
5
10

$$$$
