105392
  -OEChem-11232109093D

 23 22  0     0  0  0  0  0  0999 V2000
    3.4375   -1.7107   -0.3626 N   0  0  0  0  0  0  0  0  0  0  0  0
   -0.9958    2.0682   -0.2691 C   0  0  0  0  0  0  0  0  0  0  0  0
    0.4526    2.1730    0.2201 C   0  0  0  0  0  0  0  0  0  0  0  0
   -1.7009    0.8600    0.2795 C   0  0  0  0  0  0  0  0  0  0  0  0
   -2.9821   -1.2832    0.0609 C   0  0  0  0  0  0  0  0  0  0  0  0
   -2.2807   -0.0758   -0.4864 C   0  0  0  0  0  0  0  0  0  0  0  0
    1.3071    1.0347   -0.2648 C   0  0  0  0  0  0  0  0  0  0  0  0
   -2.0229   -2.4518    0.2253 C   0  0  0  0  0  0  0  0  0  0  0  0
    1.9962    0.2252    0.5508 C   0  0  0  0  0  0  0  0  0  0  0  0
    2.7892   -0.8395    0.0463 C   0  0  0  0  0  0  0  0  0  0  0  0
   -1.0188    2.0720   -1.3661 H   0  0  0  0  0  0  0  0  0  0  0  0
   -1.5427    2.9606    0.0587 H   0  0  0  0  0  0  0  0  0  0  0  0
    0.4712    2.2387    1.3153 H   0  0  0  0  0  0  0  0  0  0  0  0
    0.8840    3.1081   -0.1572 H   0  0  0  0  0  0  0  0  0  0  0  0
   -1.7478    0.7663    1.3619 H   0  0  0  0  0  0  0  0  0  0  0  0
   -3.4417   -1.0514    1.0292 H   0  0  0  0  0  0  0  0  0  0  0  0
   -3.7991   -1.5598   -0.6149 H   0  0  0  0  0  0  0  0  0  0  0  0
   -2.2325    0.0119   -1.5688 H   0  0  0  0  0  0  0  0  0  0  0  0
    1.3604    0.8911   -1.3421 H   0  0  0  0  0  0  0  0  0  0  0  0
   -1.5668   -2.7272   -0.7317 H   0  0  0  0  0  0  0  0  0  0  0  0
   -2.5568   -3.3270    0.6092 H   0  0  0  0  0  0  0  0  0  0  0  0
   -1.2189   -2.2116    0.9294 H   0  0  0  0  0  0  0  0  0  0  0  0
    1.9567    0.3622    1.6264 H   0  0  0  0  0  0  0  0  0  0  0  0
  1 10  3  0  0  0  0
  2  3  1  0  0  0  0
  2  4  1  0  0  0  0
  2 11  1  0  0  0  0
  2 12  1  0  0  0  0
  3  7  1  0  0  0  0
  3 13  1  0  0  0  0
  3 14  1  0  0  0  0
  4  6  2  3  0  0  0
  4 15  1  0  0  0  0
  5  6  1  0  0  0  0
  5  8  1  0  0  0  0
  5 16  1  0  0  0  0
  5 17  1  0  0  0  0
  6 18  1  0  0  0  0
  7  9  2  3  0  0  0
  7 19  1  0  0  0  0
  8 20  1  0  0  0  0
  8 21  1  0  0  0  0
  8 22  1  0  0  0  0
  9 10  1  0  0  0  0
  9 23  1  0  0  0  0
M  END
> <PUBCHEM_COMPOUND_CID>
105392

> <PUBCHEM_CONFORMER_RMSD>
0.6

> <PUBCHEM_CONFORMER_DIVERSEORDER>
1
4
11
8
23
3
5
7
22
10
20
13
21
17
6
12
16
19
18
2
15
9
14

> <PUBCHEM_MMFF94_PARTIAL_CHARGES>
13
1 -0.56
10 0.49
15 0.15
18 0.15
19 0.15
2 0.14
23 0.15
3 0.14
4 -0.29
5 0.14
6 -0.29
7 -0.29
9 -0.09

> <PUBCHEM_EFFECTIVE_ROTOR_COUNT>
4

> <PUBCHEM_PHARMACOPHORE_FEATURES>
3
1 1 acceptor
1 8 hydrophobe
4 2 3 4 7 hydrophobe

> <PUBCHEM_HEAVY_ATOM_COUNT>
10

> <PUBCHEM_ATOM_DEF_STEREO_COUNT>
0

> <PUBCHEM_ATOM_UDEF_STEREO_COUNT>
0

> <PUBCHEM_BOND_DEF_STEREO_COUNT>
0

> <PUBCHEM_BOND_UDEF_STEREO_COUNT>
2

> <PUBCHEM_ISOTOPIC_ATOM_COUNT>
0

> <PUBCHEM_COMPONENT_COUNT>
1

> <PUBCHEM_CACTVS_TAUTO_COUNT>
1

> <PUBCHEM_CONFORMER_ID>
00019BB000000001

> <PUBCHEM_MMFF94_ENERGY>
-0.0092

> <PUBCHEM_FEATURE_SELFOVERLAP>
15.223

> <PUBCHEM_SHAPE_FINGERPRINT>
11127187 94 18261389988505640413
12757275 245 18194685865524079686
14251705 54 18121221140867381035
17990270 104 18192708079906509563
19766037 51 18337124452390229614
20201158 50 18047746280820326795
20645477 70 17903344150670395103
20724930 33 18410289190439320806
20871998 22 18339079392680658545
23552423 10 17831020487613523133
4416823 128 18410858784480490583
58554843 112 18053943132422761640
8199 65 16825585402197430551
8809292 202 18196936578457701534

> <PUBCHEM_SHAPE_MULTIPOLES>
200.81
5.19
2.8
0.71
1.39
0.17
-0.01
4.02
0.2
-0.34
0
0.01
-0.02
0.34

> <PUBCHEM_SHAPE_SELFOVERLAP>
369.538

> <PUBCHEM_SHAPE_VOLUME>
124.6

> <PUBCHEM_COORDINATE_TYPE>
2
5
10

$$$$
