105516
  -OEChem-11232109023D

 33 33  0     0  0  0  0  0  0999 V2000
   -0.9329    0.6641   -0.3414 O   0  0  0  0  0  0  0  0  0  0  0  0
   -2.6132    1.5247    0.9732 O   0  0  0  0  0  0  0  0  0  0  0  0
   -2.8410   -0.7164    0.0257 C   0  0  0  0  0  0  0  0  0  0  0  0
   -1.9657   -1.8620    0.5513 C   0  0  0  0  0  0  0  0  0  0  0  0
   -4.1925   -0.7444    0.7578 C   0  0  0  0  0  0  0  0  0  0  0  0
   -3.0869   -0.8781   -1.4804 C   0  0  0  0  0  0  0  0  0  0  0  0
   -2.1443    0.6224    0.2899 C   0  0  0  0  0  0  0  0  0  0  0  0
   -0.1837    1.8711   -0.1673 C   0  0  0  0  0  0  0  0  0  0  0  0
    1.1363    1.7724   -0.9240 C   0  0  0  0  0  0  0  0  0  0  0  0
    2.0076    0.6502   -0.4140 C   0  0  0  0  0  0  0  0  0  0  0  0
    2.9100    0.9012    0.6076 C   0  0  0  0  0  0  0  0  0  0  0  0
    1.8894   -0.6112   -0.9762 C   0  0  0  0  0  0  0  0  0  0  0  0
    3.7150   -0.1357    1.0791 C   0  0  0  0  0  0  0  0  0  0  0  0
    2.6945   -1.6481   -0.5045 C   0  0  0  0  0  0  0  0  0  0  0  0
    3.6073   -1.4103    0.5232 C   0  0  0  0  0  0  0  0  0  0  0  0
   -1.7319   -1.7235    1.6132 H   0  0  0  0  0  0  0  0  0  0  0  0
   -2.4680   -2.8291    0.4384 H   0  0  0  0  0  0  0  0  0  0  0  0
   -1.0123   -1.9213    0.0145 H   0  0  0  0  0  0  0  0  0  0  0  0
   -4.0609   -0.6232    1.8393 H   0  0  0  0  0  0  0  0  0  0  0  0
   -4.7171   -1.6915    0.5890 H   0  0  0  0  0  0  0  0  0  0  0  0
   -4.8468    0.0657    0.4154 H   0  0  0  0  0  0  0  0  0  0  0  0
   -2.1459   -0.9155   -2.0409 H   0  0  0  0  0  0  0  0  0  0  0  0
   -3.6369   -1.8009   -1.6960 H   0  0  0  0  0  0  0  0  0  0  0  0
   -3.6672   -0.0370   -1.8770 H   0  0  0  0  0  0  0  0  0  0  0  0
   -0.7642    2.7133   -0.5614 H   0  0  0  0  0  0  0  0  0  0  0  0
   -0.0007    2.0323    0.9020 H   0  0  0  0  0  0  0  0  0  0  0  0
    0.9383    1.6099   -1.9914 H   0  0  0  0  0  0  0  0  0  0  0  0
    1.6773    2.7239   -0.8531 H   0  0  0  0  0  0  0  0  0  0  0  0
    2.9995    1.8900    1.0483 H   0  0  0  0  0  0  0  0  0  0  0  0
    1.1817   -0.8077   -1.7765 H   0  0  0  0  0  0  0  0  0  0  0  0
    4.4253    0.0493    1.8797 H   0  0  0  0  0  0  0  0  0  0  0  0
    2.6102   -2.6408   -0.9369 H   0  0  0  0  0  0  0  0  0  0  0  0
    4.2338   -2.2178    0.8906 H   0  0  0  0  0  0  0  0  0  0  0  0
  1  7  1  0  0  0  0
  1  8  1  0  0  0  0
  2  7  2  0  0  0  0
  3  4  1  0  0  0  0
  3  5  1  0  0  0  0
  3  6  1  0  0  0  0
  3  7  1  0  0  0  0
  4 16  1  0  0  0  0
  4 17  1  0  0  0  0
  4 18  1  0  0  0  0
  5 19  1  0  0  0  0
  5 20  1  0  0  0  0
  5 21  1  0  0  0  0
  6 22  1  0  0  0  0
  6 23  1  0  0  0  0
  6 24  1  0  0  0  0
  8  9  1  0  0  0  0
  8 25  1  0  0  0  0
  8 26  1  0  0  0  0
  9 10  1  0  0  0  0
  9 27  1  0  0  0  0
  9 28  1  0  0  0  0
 10 11  2  0  0  0  0
 10 12  1  0  0  0  0
 11 13  1  0  0  0  0
 11 29  1  0  0  0  0
 12 14  2  0  0  0  0
 12 30  1  0  0  0  0
 13 15  2  0  0  0  0
 13 31  1  0  0  0  0
 14 15  1  0  0  0  0
 14 32  1  0  0  0  0
 15 33  1  0  0  0  0
M  END
> <PUBCHEM_COMPOUND_CID>
105516

> <PUBCHEM_CONFORMER_RMSD>
0.6

> <PUBCHEM_CONFORMER_DIVERSEORDER>
1
29
62
55
25
48
24
22
74
19
12
36
65
37
21
35
7
16
20
28
66
38
58
41
40
44
32
49
3
59
8
26
54
42
23
69
5
2
60
43
67
73
14
39
18
50
30
15
61
51
13
47
9
68
71
76
56
75
17
53
34
10
64
46
52
6
11
45
70
63
33
4
31
57
72
27

> <PUBCHEM_MMFF94_PARTIAL_CHARGES>
17
1 -0.43
10 -0.14
11 -0.15
12 -0.15
13 -0.15
14 -0.15
15 -0.15
2 -0.57
29 0.15
3 0.06
30 0.15
31 0.15
32 0.15
33 0.15
7 0.66
8 0.28
9 0.14

> <PUBCHEM_EFFECTIVE_ROTOR_COUNT>
5

> <PUBCHEM_PHARMACOPHORE_FEATURES>
3
1 2 acceptor
4 3 4 5 6 hydrophobe
6 10 11 12 13 14 15 rings

> <PUBCHEM_HEAVY_ATOM_COUNT>
15

> <PUBCHEM_ATOM_DEF_STEREO_COUNT>
0

> <PUBCHEM_ATOM_UDEF_STEREO_COUNT>
0

> <PUBCHEM_BOND_DEF_STEREO_COUNT>
0

> <PUBCHEM_BOND_UDEF_STEREO_COUNT>
0

> <PUBCHEM_ISOTOPIC_ATOM_COUNT>
0

> <PUBCHEM_COMPONENT_COUNT>
1

> <PUBCHEM_CACTVS_TAUTO_COUNT>
1

> <PUBCHEM_CONFORMER_ID>
00019C2C00000001

> <PUBCHEM_MMFF94_ENERGY>
32.9547

> <PUBCHEM_FEATURE_SELFOVERLAP>
15.223

> <PUBCHEM_SHAPE_FINGERPRINT>
10366900 7 17916861447325906976
10618630 7 18335424568742845917
11137873 295 17894344475913078349
12251169 10 18130785663815493916
12346177 29 18338227155490046821
12363563 72 17968096408573700712
12382932 28 18272090461426540344
12400797 245 18411978053348166782
12553582 1 18335431157338950132
12633257 1 17132111351008127226
12670545 2 17750214989833240787
13296908 3 17821726143502890853
13693222 15 17775280586191311727
13764800 53 12463280449173197189
14251705 54 18118691147347486483
14289901 80 17561077016692085378
14350558 41 18335424594676361924
15775835 57 17203331147319019351
17834072 14 18262501654748478164
20201158 50 18335418006033044998
20361792 2 17458351805693659700
20442098 301 18202284710077922846
20559304 39 18339371862826440036
20645477 70 18114740559445735647
20671657 53 17240477005418415140
21501925 9 18410290328452855340
22646028 28 18186522111329469539
232386 152 18410018719137245780
251288 83 18272080626325796866
2637199 183 8357988821706806492
81228 2 18190460458885734404
9882013 296 17703501185991358156

> <PUBCHEM_SHAPE_MULTIPOLES>
296.95
7.57
2.03
1.16
1.38
0.19
0.15
-2.9
-1.67
-0.25
0.04
0.17
-0.07
-0.21

> <PUBCHEM_SHAPE_SELFOVERLAP>
601.154

> <PUBCHEM_SHAPE_VOLUME>
174.1

> <PUBCHEM_COORDINATE_TYPE>
2
5
10

$$$$
