105594
  -OEChem-11232109433D

 34 35  0     0  0  0  0  0  0999 V2000
   -1.3868   -2.5298   -0.4435 O   0  0  0  0  0  0  0  0  0  0  0  0
   -0.4450   -1.3932    1.3229 O   0  0  0  0  0  0  0  0  0  0  0  0
   -0.7406    1.3127    0.9005 N   0  0  0  0  0  0  0  0  0  0  0  0
    1.5612    2.0209    0.5476 C   0  0  0  0  0  0  0  0  0  0  0  0
    2.6290    1.0361    0.1565 C   0  0  0  0  0  0  0  0  0  0  0  0
   -1.9623    0.9218    0.3376 C   0  0  0  0  0  0  0  0  0  0  0  0
   -2.2392   -0.4225    0.0885 C   0  0  0  0  0  0  0  0  0  0  0  0
    0.2112    1.5740    0.0621 C   0  0  0  0  0  0  0  0  0  0  0  0
    2.9409   -0.0115    1.0128 C   0  0  0  0  0  0  0  0  0  0  0  0
    3.2888    1.1869   -1.0560 C   0  0  0  0  0  0  0  0  0  0  0  0
   -2.9086    1.8981    0.0257 C   0  0  0  0  0  0  0  0  0  0  0  0
   -3.4622   -0.7903   -0.4725 C   0  0  0  0  0  0  0  0  0  0  0  0
    3.9308   -0.9248    0.6503 C   0  0  0  0  0  0  0  0  0  0  0  0
    4.2787    0.2734   -1.4186 C   0  0  0  0  0  0  0  0  0  0  0  0
   -4.1316    1.5303   -0.5351 C   0  0  0  0  0  0  0  0  0  0  0  0
   -4.4084    0.1861   -0.7842 C   0  0  0  0  0  0  0  0  0  0  0  0
    4.5997   -0.7825   -0.5653 C   0  0  0  0  0  0  0  0  0  0  0  0
   -1.2697   -1.4633    0.4040 C   0  0  0  0  0  0  0  0  0  0  0  0
   -0.4859   -3.6224   -0.2331 C   0  0  0  0  0  0  0  0  0  0  0  0
    1.7711    3.0027    0.1074 H   0  0  0  0  0  0  0  0  0  0  0  0
    1.5434    2.1565    1.6353 H   0  0  0  0  0  0  0  0  0  0  0  0
    0.0717    1.4929   -1.0323 H   0  0  0  0  0  0  0  0  0  0  0  0
    2.4244   -0.1326    1.9608 H   0  0  0  0  0  0  0  0  0  0  0  0
    3.0454    2.0045   -1.7288 H   0  0  0  0  0  0  0  0  0  0  0  0
   -2.7038    2.9485    0.2166 H   0  0  0  0  0  0  0  0  0  0  0  0
   -3.7157   -1.8293   -0.6660 H   0  0  0  0  0  0  0  0  0  0  0  0
    4.1800   -1.7476    1.3140 H   0  0  0  0  0  0  0  0  0  0  0  0
    4.7991    0.3837   -2.3654 H   0  0  0  0  0  0  0  0  0  0  0  0
   -4.8688    2.2903   -0.7769 H   0  0  0  0  0  0  0  0  0  0  0  0
   -5.3621   -0.1001   -1.2178 H   0  0  0  0  0  0  0  0  0  0  0  0
    5.3700   -1.4939   -0.8479 H   0  0  0  0  0  0  0  0  0  0  0  0
   -0.6423   -4.0535    0.7601 H   0  0  0  0  0  0  0  0  0  0  0  0
    0.5486   -3.2859   -0.3498 H   0  0  0  0  0  0  0  0  0  0  0  0
   -0.6952   -4.3864   -0.9863 H   0  0  0  0  0  0  0  0  0  0  0  0
  1 18  1  0  0  0  0
  1 19  1  0  0  0  0
  2 18  2  0  0  0  0
  3  6  1  0  0  0  0
  3  8  2  0  0  0  0
  4  5  1  0  0  0  0
  4  8  1  0  0  0  0
  4 20  1  0  0  0  0
  4 21  1  0  0  0  0
  5  9  2  0  0  0  0
  5 10  1  0  0  0  0
  6  7  1  0  0  0  0
  6 11  2  0  0  0  0
  7 12  2  0  0  0  0
  7 18  1  0  0  0  0
  8 22  1  0  0  0  0
  9 13  1  0  0  0  0
  9 23  1  0  0  0  0
 10 14  2  0  0  0  0
 10 24  1  0  0  0  0
 11 15  1  0  0  0  0
 11 25  1  0  0  0  0
 12 16  1  0  0  0  0
 12 26  1  0  0  0  0
 13 17  2  0  0  0  0
 13 27  1  0  0  0  0
 14 17  1  0  0  0  0
 14 28  1  0  0  0  0
 15 16  2  0  0  0  0
 15 29  1  0  0  0  0
 16 30  1  0  0  0  0
 17 31  1  0  0  0  0
 19 32  1  0  0  0  0
 19 33  1  0  0  0  0
 19 34  1  0  0  0  0
M  END
> <PUBCHEM_COMPOUND_CID>
105594

> <PUBCHEM_CONFORMER_RMSD>
0.6

> <PUBCHEM_CONFORMER_DIVERSEORDER>
2
84
90
21
62
39
94
68
27
63
22
54
44
52
33
50
76
12
7
45
36
104
69
19
56
18
25
74
88
91
89
20
9
60
92
43
8
13
49
78
82
70
59
15
53
87
93
47
58
66
42
86
24
11
98
48
105
38
40
95
16
55
29
99
26
1
41
83
96
3
30
46
35
57
6
67
85
14
37
75
5
65
97
34
32
51
61
17
64
100
28
103
23
31
80
73
10
79
77
71
101
4
102
81
72

> <PUBCHEM_MMFF94_PARTIAL_CHARGES>
29
1 -0.43
10 -0.15
11 -0.15
12 -0.15
13 -0.15
14 -0.15
15 -0.15
16 -0.15
17 -0.15
18 0.63
19 0.28
2 -0.57
22 0.06
23 0.15
24 0.15
25 0.15
26 0.15
27 0.15
28 0.15
29 0.15
3 -0.63
30 0.15
31 0.15
4 0.2
5 -0.14
6 0.18
7 0.09
8 0.33
9 -0.15

> <PUBCHEM_EFFECTIVE_ROTOR_COUNT>
5

> <PUBCHEM_PHARMACOPHORE_FEATURES>
4
1 2 acceptor
1 3 acceptor
6 5 9 10 13 14 17 rings
6 6 7 11 12 15 16 rings

> <PUBCHEM_HEAVY_ATOM_COUNT>
19

> <PUBCHEM_ATOM_DEF_STEREO_COUNT>
0

> <PUBCHEM_ATOM_UDEF_STEREO_COUNT>
0

> <PUBCHEM_BOND_DEF_STEREO_COUNT>
0

> <PUBCHEM_BOND_UDEF_STEREO_COUNT>
0

> <PUBCHEM_ISOTOPIC_ATOM_COUNT>
0

> <PUBCHEM_COMPONENT_COUNT>
1

> <PUBCHEM_CACTVS_TAUTO_COUNT>
3

> <PUBCHEM_CONFORMER_ID>
00019C7A00000002

> <PUBCHEM_MMFF94_ENERGY>
55.0291

> <PUBCHEM_FEATURE_SELFOVERLAP>
20.302

> <PUBCHEM_SHAPE_FINGERPRINT>
10062212 137 18340476794977081155
10366900 7 17275108323564521200
10693767 8 17555990809753797927
10764073 3 17828809185083526179
107951 10 17603876593404040939
11458722 379 18411418380153981589
12363563 72 17203618081484272560
12553582 1 18270415939925504568
12555020 224 18412260614619313423
12592029 89 18338238168017990691
12670545 2 18260827060290890210
14115302 16 18408326596728452740
15163728 17 16517350112695768885
15375358 24 18201714089809029864
16752209 62 18411975836760017449
17870717 6 18200607924786341300
18186145 218 18413101767022177641
19591789 44 18267298914934738515
19862831 5 18408041805778500688
20645476 183 17458068200249393123
20871999 31 18410301306637521660
21069387 34 17060345140510255868
21486144 27 14851892482113350032
21665056 4 18410013260339443695
22713019 99 18343299262626364793
22849339 104 18267043797634416238
23366157 5 17756143393574958235
23557571 272 17984971846381500466
23559900 14 18271801376153351536
3004659 81 18260830346352198374
58051976 100 18186523223810616029
59755656 215 18339075983320742077
6138700 20 18267584594267758950
74978 22 18339081604773562216
9709674 26 18198617937557410600
9882013 296 10519984872332196340

> <PUBCHEM_SHAPE_MULTIPOLES>
374.29
9.03
2.84
1.08
3.08
2.38
0.06
-1.37
2.85
-1.16
0.02
0.69
-0.03
-0.18

> <PUBCHEM_SHAPE_SELFOVERLAP>
797.066

> <PUBCHEM_SHAPE_VOLUME>
208.1

> <PUBCHEM_COORDINATE_TYPE>
2
5
10

$$$$
