105595
  -OEChem-11232109033D

 33 33  0     0  0  0  0  0  0999 V2000
    2.0287    0.9961   -0.0417 O   0  0  0  0  0  0  0  0  0  0  0  0
    2.3038   -1.2909   -0.1726 O   0  0  0  0  0  0  0  0  0  0  0  0
    0.6604    0.8567   -0.4314 C   0  0  0  0  0  0  0  0  0  0  0  0
   -0.0759    0.0151    0.6346 C   0  0  0  0  0  0  0  0  0  0  0  0
    0.0500    2.2632   -0.4726 C   0  0  0  0  0  0  0  0  0  0  0  0
    0.6094    0.2307   -1.8278 C   0  0  0  0  0  0  0  0  0  0  0  0
   -1.5596   -0.1632    0.4063 C   0  0  0  0  0  0  0  0  0  0  0  0
   -2.4429    0.7586    0.9431 C   0  0  0  0  0  0  0  0  0  0  0  0
   -2.0057   -1.2444   -0.3352 C   0  0  0  0  0  0  0  0  0  0  0  0
    2.7380   -0.1688    0.0485 C   0  0  0  0  0  0  0  0  0  0  0  0
    4.1541    0.1504    0.4669 C   0  0  0  0  0  0  0  0  0  0  0  0
   -3.8119    0.5943    0.7324 C   0  0  0  0  0  0  0  0  0  0  0  0
   -3.3748   -1.4085   -0.5461 C   0  0  0  0  0  0  0  0  0  0  0  0
   -4.2779   -0.4891   -0.0122 C   0  0  0  0  0  0  0  0  0  0  0  0
    5.0042   -1.1001    0.6080 C   0  0  0  0  0  0  0  0  0  0  0  0
    0.0801    0.4763    1.6214 H   0  0  0  0  0  0  0  0  0  0  0  0
    0.3399   -0.9877    0.7663 H   0  0  0  0  0  0  0  0  0  0  0  0
    0.6621    2.9195   -1.1035 H   0  0  0  0  0  0  0  0  0  0  0  0
    0.0485    2.7224    0.5225 H   0  0  0  0  0  0  0  0  0  0  0  0
   -0.9666    2.2785   -0.8759 H   0  0  0  0  0  0  0  0  0  0  0  0
    0.7838   -0.8484   -1.8347 H   0  0  0  0  0  0  0  0  0  0  0  0
    1.3640    0.6810   -2.4836 H   0  0  0  0  0  0  0  0  0  0  0  0
   -0.3689    0.3856   -2.2970 H   0  0  0  0  0  0  0  0  0  0  0  0
   -2.0932    1.6024    1.5305 H   0  0  0  0  0  0  0  0  0  0  0  0
   -1.3119   -1.9681   -0.7528 H   0  0  0  0  0  0  0  0  0  0  0  0
    4.5980    0.8081   -0.2877 H   0  0  0  0  0  0  0  0  0  0  0  0
    4.1214    0.6759    1.4271 H   0  0  0  0  0  0  0  0  0  0  0  0
   -4.5153    1.3092    1.1493 H   0  0  0  0  0  0  0  0  0  0  0  0
   -3.7377   -2.2526   -1.1252 H   0  0  0  0  0  0  0  0  0  0  0  0
   -5.3439   -0.6172   -0.1759 H   0  0  0  0  0  0  0  0  0  0  0  0
    5.0608   -1.6460   -0.3397 H   0  0  0  0  0  0  0  0  0  0  0  0
    6.0217   -0.8371    0.9129 H   0  0  0  0  0  0  0  0  0  0  0  0
    4.5854   -1.7773    1.3597 H   0  0  0  0  0  0  0  0  0  0  0  0
  1  3  1  0  0  0  0
  1 10  1  0  0  0  0
  2 10  2  0  0  0  0
  3  4  1  0  0  0  0
  3  5  1  0  0  0  0
  3  6  1  0  0  0  0
  4  7  1  0  0  0  0
  4 16  1  0  0  0  0
  4 17  1  0  0  0  0
  5 18  1  0  0  0  0
  5 19  1  0  0  0  0
  5 20  1  0  0  0  0
  6 21  1  0  0  0  0
  6 22  1  0  0  0  0
  6 23  1  0  0  0  0
  7  8  2  0  0  0  0
  7  9  1  0  0  0  0
  8 12  1  0  0  0  0
  8 24  1  0  0  0  0
  9 13  2  0  0  0  0
  9 25  1  0  0  0  0
 10 11  1  0  0  0  0
 11 15  1  0  0  0  0
 11 26  1  0  0  0  0
 11 27  1  0  0  0  0
 12 14  2  0  0  0  0
 12 28  1  0  0  0  0
 13 14  1  0  0  0  0
 13 29  1  0  0  0  0
 14 30  1  0  0  0  0
 15 31  1  0  0  0  0
 15 32  1  0  0  0  0
 15 33  1  0  0  0  0
M  END
> <PUBCHEM_COMPOUND_CID>
105595

> <PUBCHEM_CONFORMER_RMSD>
0.6

> <PUBCHEM_CONFORMER_DIVERSEORDER>
2
8
14
18
6
20
19
16
22
21
32
23
12
9
30
27
29
38
36
25
17
35
10
15
4
11
40
5
13
28
24
1
33
37
31
39
3
7
26
34

> <PUBCHEM_MMFF94_PARTIAL_CHARGES>
17
1 -0.43
10 0.66
11 0.06
12 -0.15
13 -0.15
14 -0.15
2 -0.57
24 0.15
25 0.15
28 0.15
29 0.15
3 0.28
30 0.15
4 0.14
7 -0.14
8 -0.15
9 -0.15

> <PUBCHEM_EFFECTIVE_ROTOR_COUNT>
5

> <PUBCHEM_PHARMACOPHORE_FEATURES>
4
1 15 hydrophobe
1 2 acceptor
3 3 5 6 hydrophobe
6 7 8 9 12 13 14 rings

> <PUBCHEM_HEAVY_ATOM_COUNT>
15

> <PUBCHEM_ATOM_DEF_STEREO_COUNT>
0

> <PUBCHEM_ATOM_UDEF_STEREO_COUNT>
0

> <PUBCHEM_BOND_DEF_STEREO_COUNT>
0

> <PUBCHEM_BOND_UDEF_STEREO_COUNT>
0

> <PUBCHEM_ISOTOPIC_ATOM_COUNT>
0

> <PUBCHEM_COMPONENT_COUNT>
1

> <PUBCHEM_CACTVS_TAUTO_COUNT>
1

> <PUBCHEM_CONFORMER_ID>
00019C7B00000002

> <PUBCHEM_MMFF94_ENERGY>
38.3919

> <PUBCHEM_FEATURE_SELFOVERLAP>
20.297

> <PUBCHEM_SHAPE_FINGERPRINT>
10465860 250 17489585666673382811
10922049 32 10231756712367954044
11132069 177 18201440250972746566
12119455 92 15482669061510057492
12186901 62 12540689328028704067
12236239 1 18410012148116883643
12251169 10 18131351912224722736
124424 183 18113899364436622117
13675066 3 18113341911856833985
13690532 89 18335701667490890387
13760787 5 17821734939954446846
14115302 16 16805615775819034762
14943859 89 8286201656184830700
15375358 24 16559039272562232785
15375462 189 18186798063289441586
15375462 478 17988924491524521333
16945 1 16732982041824720849
17041 49 18339935886848901737
17041 50 15068620530378165213
17834072 33 18342459287656943300
17980427 23 17704354394351890705
1813 80 17749681696760815598
18186145 218 13045945719991044918
200 152 18272080630573311063
20233049 118 13768194030198473935
20279233 1 16343713140266546855
20281475 54 18261111898242759494
204376 136 14189570858106464644
20645477 70 17385725815878815018
20711985 327 18335424581796799892
21069387 34 18262799691414643407
21267235 1 18411709802444118715
21339142 126 18262233322408759236
21501925 9 18272370901194637884
21524375 3 11167939160766309148
22094290 60 12901545745597931059
23175994 123 16805045111977606461
23402539 116 17989199335757516261
23557571 272 16916524600423999865
23559900 14 17346046562977787406
24859131 72 18202281372988593102
2916195 48 10953749936558364206
42 15 18410578392120329827
4990 188 11674873373397780040
5104073 3 18271811280131093731
573450 72 18272366464583228691
6992083 37 18411149038882135121
74978 22 18115879675046043267
83771 10 18187361017616899148
9981440 41 17255680218910397857

> <PUBCHEM_SHAPE_MULTIPOLES>
296.95
8.5
1.56
1.07
4.3
0.4
-0.32
-3.19
2.12
-0.09
-0.21
-0.06
0.1
-0.7

> <PUBCHEM_SHAPE_SELFOVERLAP>
604.187

> <PUBCHEM_SHAPE_VOLUME>
172.4

> <PUBCHEM_COORDINATE_TYPE>
2
5
10

$$$$
