105664
  -OEChem-11232109033D

 40 40  0     1  0  0  0  0  0999 V2000
   -0.7408   -0.1400   -0.4552 O   0  0  0  0  0  0  0  0  0  0  0  0
   -2.9216   -0.3735   -0.7264 O   0  0  0  0  0  0  0  0  0  0  0  0
   -2.1546    1.2768    0.6882 O   0  0  0  0  0  0  0  0  0  0  0  0
    1.6765   -0.1701   -0.3748 C   0  0  1  0  0  0  0  0  0  0  0  0
    1.7399   -1.6388    0.0528 C   0  0  0  0  0  0  0  0  0  0  0  0
    0.3889    0.5051    0.1273 C   0  0  1  0  0  0  0  0  0  0  0  0
    2.9186    0.5828    0.1216 C   0  0  0  0  0  0  0  0  0  0  0  0
    0.3532    1.9898   -0.2389 C   0  0  0  0  0  0  0  0  0  0  0  0
    2.8707    2.0632   -0.2478 C   0  0  0  0  0  0  0  0  0  0  0  0
    1.5923    2.7262    0.2541 C   0  0  0  0  0  0  0  0  0  0  0  0
    3.0190   -2.2843   -0.5037 C   0  0  0  0  0  0  0  0  0  0  0  0
    1.7509   -1.7304    1.5871 C   0  0  0  0  0  0  0  0  0  0  0  0
    0.5140   -2.3889   -0.4920 C   0  0  0  0  0  0  0  0  0  0  0  0
   -1.9606    0.3492   -0.0860 C   0  0  0  0  0  0  0  0  0  0  0  0
   -4.2721    0.0109   -0.4484 C   0  0  0  0  0  0  0  0  0  0  0  0
   -4.7742   -0.7778    0.7421 C   0  0  0  0  0  0  0  0  0  0  0  0
    1.6705   -0.1317   -1.4744 H   0  0  0  0  0  0  0  0  0  0  0  0
    0.3112    0.4395    1.2176 H   0  0  0  0  0  0  0  0  0  0  0  0
    3.8359    0.1752   -0.3141 H   0  0  0  0  0  0  0  0  0  0  0  0
    3.0224    0.5328    1.2093 H   0  0  0  0  0  0  0  0  0  0  0  0
   -0.5014    2.5358    0.1613 H   0  0  0  0  0  0  0  0  0  0  0  0
    0.2752    2.0913   -1.3299 H   0  0  0  0  0  0  0  0  0  0  0  0
    2.9336    2.1697   -1.3379 H   0  0  0  0  0  0  0  0  0  0  0  0
    3.7420    2.5781    0.1731 H   0  0  0  0  0  0  0  0  0  0  0  0
    1.5955    2.7464    1.3509 H   0  0  0  0  0  0  0  0  0  0  0  0
    1.5632    3.7680   -0.0850 H   0  0  0  0  0  0  0  0  0  0  0  0
    3.1184   -2.1106   -1.5810 H   0  0  0  0  0  0  0  0  0  0  0  0
    3.0055   -3.3702   -0.3497 H   0  0  0  0  0  0  0  0  0  0  0  0
    3.9261   -1.9235   -0.0089 H   0  0  0  0  0  0  0  0  0  0  0  0
    0.8532   -1.3256    2.0607 H   0  0  0  0  0  0  0  0  0  0  0  0
    2.6299   -1.2752    2.0498 H   0  0  0  0  0  0  0  0  0  0  0  0
    1.7830   -2.7877    1.8833 H   0  0  0  0  0  0  0  0  0  0  0  0
   -0.3775   -2.2759    0.1323 H   0  0  0  0  0  0  0  0  0  0  0  0
    0.7066   -3.4701   -0.4879 H   0  0  0  0  0  0  0  0  0  0  0  0
    0.2918   -2.1278   -1.5326 H   0  0  0  0  0  0  0  0  0  0  0  0
   -4.3646    1.0908   -0.2862 H   0  0  0  0  0  0  0  0  0  0  0  0
   -4.8672   -0.2347   -1.3339 H   0  0  0  0  0  0  0  0  0  0  0  0
   -5.8240   -0.5481    0.9452 H   0  0  0  0  0  0  0  0  0  0  0  0
   -4.6775   -1.8537    0.5617 H   0  0  0  0  0  0  0  0  0  0  0  0
   -4.1879   -0.5518    1.6386 H   0  0  0  0  0  0  0  0  0  0  0  0
  1  6  1  0  0  0  0
  1 14  1  0  0  0  0
  2 14  1  0  0  0  0
  2 15  1  0  0  0  0
  3 14  2  0  0  0  0
  4  5  1  0  0  0  0
  4  6  1  0  0  0  0
  4  7  1  0  0  0  0
  4 17  1  0  0  0  0
  5 11  1  0  0  0  0
  5 12  1  0  0  0  0
  5 13  1  0  0  0  0
  6  8  1  0  0  0  0
  6 18  1  0  0  0  0
  7  9  1  0  0  0  0
  7 19  1  0  0  0  0
  7 20  1  0  0  0  0
  8 10  1  0  0  0  0
  8 21  1  0  0  0  0
  8 22  1  0  0  0  0
  9 10  1  0  0  0  0
  9 23  1  0  0  0  0
  9 24  1  0  0  0  0
 10 25  1  0  0  0  0
 10 26  1  0  0  0  0
 11 27  1  0  0  0  0
 11 28  1  0  0  0  0
 11 29  1  0  0  0  0
 12 30  1  0  0  0  0
 12 31  1  0  0  0  0
 12 32  1  0  0  0  0
 13 33  1  0  0  0  0
 13 34  1  0  0  0  0
 13 35  1  0  0  0  0
 15 16  1  0  0  0  0
 15 36  1  0  0  0  0
 15 37  1  0  0  0  0
 16 38  1  0  0  0  0
 16 39  1  0  0  0  0
 16 40  1  0  0  0  0
M  END
> <PUBCHEM_COMPOUND_CID>
105664

> <PUBCHEM_CONFORMER_RMSD>
0.8

> <PUBCHEM_CONFORMER_DIVERSEORDER>
5
7
24
35
4
10
2
12
22
8
14
33
27
20
18
16
11
19
23
26
30
29
15
34
6
31
28
13
1
21
3
17
32
9
25

> <PUBCHEM_MMFF94_PARTIAL_CHARGES>
6
1 -0.43
14 0.87
15 0.28
2 -0.43
3 -0.57
6 0.28

> <PUBCHEM_EFFECTIVE_ROTOR_COUNT>
6.2

> <PUBCHEM_PHARMACOPHORE_FEATURES>
2
4 5 11 12 13 hydrophobe
6 4 6 7 8 9 10 rings

> <PUBCHEM_HEAVY_ATOM_COUNT>
16

> <PUBCHEM_ATOM_DEF_STEREO_COUNT>
0

> <PUBCHEM_ATOM_UDEF_STEREO_COUNT>
2

> <PUBCHEM_BOND_DEF_STEREO_COUNT>
0

> <PUBCHEM_BOND_UDEF_STEREO_COUNT>
0

> <PUBCHEM_ISOTOPIC_ATOM_COUNT>
0

> <PUBCHEM_COMPONENT_COUNT>
1

> <PUBCHEM_CACTVS_TAUTO_COUNT>
1

> <PUBCHEM_CONFORMER_ID>
00019CC000000005

> <PUBCHEM_MMFF94_ENERGY>
44.6378

> <PUBCHEM_FEATURE_SELFOVERLAP>
10.148

> <PUBCHEM_SHAPE_FINGERPRINT>
10967382 1 18411981403201124228
10980938 120 18411696612383099493
10989021 7 18340202986305971301
11471102 20 18411132563139616085
12346645 6 18412542128155693004
12553582 1 17977104561206115139
12644460 14 18411708703053446659
13140716 1 18050561039188086528
13380535 76 18264486359336289698
13836976 161 18190461743069990917
14251717 144 18410852174509848501
14252887 29 18342457006575797514
14817 1 14746136171054577968
15375462 189 18131351955638489545
15442244 35 18197783198068863377
16945 1 18270125737527574028
17990270 104 18339359643649647062
20339313 130 18342176613830430143
20559304 39 18343018882644859505
20645476 183 17610912565942167084
20645477 70 18409719669576457023
20871998 22 18197213655366756630
21524375 3 18264204893239943244
21730867 7 18334856134290254527
221490 88 18408612465293274283
2255824 54 18338802319987618452
2334 1 18339356358121049972
23419403 2 15072507200966662954
23598291 2 18129113229341587761
25 1 18265332983374320260
257057 1 17829314796917349386
2748010 2 18123170322075768468
3060560 45 18340486754942892076
3071541 250 18340773632935628846
3071541 37 18335425707225950620
33824 294 18336545022826381561
528862 383 18409157831428597948
7364860 26 18413670218675165580
81228 2 17403722364076998712
81539 233 18188488094049544340
8272917 22 18341337734246234045
9709674 26 18334861653766776835
9999458 23 18114743858123329876

> <PUBCHEM_SHAPE_MULTIPOLES>
311.66
6.7
2.9
0.93
10.11
0.22
-0.25
-0.94
-0.23
-3.05
-0.04
-0.03
-0.35
0.02

> <PUBCHEM_SHAPE_SELFOVERLAP>
616.892

> <PUBCHEM_SHAPE_VOLUME>
184.9

> <PUBCHEM_COORDINATE_TYPE>
2
5
10

$$$$
