105653
  -OEChem-11232108523D

 44 44  0     0  0  0  0  0  0999 V2000
    3.5970    1.8302   -1.0528 O   0  0  0  0  0  0  0  0  0  0  0  0
    2.5000    1.9035    0.9697 O   0  0  0  0  0  0  0  0  0  0  0  0
    1.0701   -0.4286    1.2927 N   0  0  0  0  0  0  0  0  0  0  0  0
   -3.3137    1.8182    0.9920 C   0  0  0  0  0  0  0  0  0  0  0  0
   -4.6085    1.3603    0.3075 C   0  0  0  0  0  0  0  0  0  0  0  0
   -2.0667    1.1585    0.4382 C   0  0  0  0  0  0  0  0  0  0  0  0
   -4.8378   -0.1206    0.4324 C   0  0  0  0  0  0  0  0  0  0  0  0
   -5.0593   -1.0127   -0.5515 C   0  0  0  0  0  0  0  0  0  0  0  0
   -1.8012    1.4354   -1.0206 C   0  0  0  0  0  0  0  0  0  0  0  0
   -1.2052    0.3928    1.1320 C   0  0  0  0  0  0  0  0  0  0  0  0
   -5.2738   -2.4668   -0.2254 C   0  0  0  0  0  0  0  0  0  0  0  0
   -5.0995   -0.6942   -2.0188 C   0  0  0  0  0  0  0  0  0  0  0  0
    0.0177   -0.2189    0.5678 C   0  0  0  0  0  0  0  0  0  0  0  0
    2.1688   -0.9969    0.6254 C   0  0  0  0  0  0  0  0  0  0  0  0
    3.1280   -0.1906    0.0181 C   0  0  0  0  0  0  0  0  0  0  0  0
    2.2845   -2.3839    0.5792 C   0  0  0  0  0  0  0  0  0  0  0  0
    4.2101   -0.7751   -0.6398 C   0  0  0  0  0  0  0  0  0  0  0  0
    3.3667   -2.9684   -0.0788 C   0  0  0  0  0  0  0  0  0  0  0  0
    4.3295   -2.1640   -0.6883 C   0  0  0  0  0  0  0  0  0  0  0  0
    3.0292    1.2628    0.0540 C   0  0  0  0  0  0  0  0  0  0  0  0
    3.5641    3.2592   -1.1331 C   0  0  0  0  0  0  0  0  0  0  0  0
   -3.2168    2.9063    0.8899 H   0  0  0  0  0  0  0  0  0  0  0  0
   -3.3873    1.6205    2.0695 H   0  0  0  0  0  0  0  0  0  0  0  0
   -4.6124    1.7014   -0.7305 H   0  0  0  0  0  0  0  0  0  0  0  0
   -5.4504    1.8701    0.7927 H   0  0  0  0  0  0  0  0  0  0  0  0
   -4.8402   -0.4854    1.4592 H   0  0  0  0  0  0  0  0  0  0  0  0
   -0.7359    1.4633   -1.2688 H   0  0  0  0  0  0  0  0  0  0  0  0
   -2.1907    2.4214   -1.2990 H   0  0  0  0  0  0  0  0  0  0  0  0
   -2.2931    0.6875   -1.6497 H   0  0  0  0  0  0  0  0  0  0  0  0
   -1.3589    0.2408    2.1967 H   0  0  0  0  0  0  0  0  0  0  0  0
   -4.5057   -3.0804   -0.7075 H   0  0  0  0  0  0  0  0  0  0  0  0
   -5.2294   -2.6652    0.8506 H   0  0  0  0  0  0  0  0  0  0  0  0
   -6.2557   -2.7941   -0.5827 H   0  0  0  0  0  0  0  0  0  0  0  0
   -4.3127   -1.2471   -2.5432 H   0  0  0  0  0  0  0  0  0  0  0  0
   -6.0659   -0.9920   -2.4396 H   0  0  0  0  0  0  0  0  0  0  0  0
   -4.9613    0.3634   -2.2485 H   0  0  0  0  0  0  0  0  0  0  0  0
   -0.0051   -0.4649   -0.5088 H   0  0  0  0  0  0  0  0  0  0  0  0
    1.5402   -3.0194    1.0518 H   0  0  0  0  0  0  0  0  0  0  0  0
    4.9855   -0.1778   -1.1123 H   0  0  0  0  0  0  0  0  0  0  0  0
    3.4602   -4.0499   -0.1156 H   0  0  0  0  0  0  0  0  0  0  0  0
    5.1738   -2.6195   -1.1975 H   0  0  0  0  0  0  0  0  0  0  0  0
    4.1113    3.6967   -0.2929 H   0  0  0  0  0  0  0  0  0  0  0  0
    2.5286    3.6122   -1.1459 H   0  0  0  0  0  0  0  0  0  0  0  0
    4.0503    3.5592   -2.0651 H   0  0  0  0  0  0  0  0  0  0  0  0
  1 20  1  0  0  0  0
  1 21  1  0  0  0  0
  2 20  2  0  0  0  0
  3 13  2  0  0  0  0
  3 14  1  0  0  0  0
  4  5  1  0  0  0  0
  4  6  1  0  0  0  0
  4 22  1  0  0  0  0
  4 23  1  0  0  0  0
  5  7  1  0  0  0  0
  5 24  1  0  0  0  0
  5 25  1  0  0  0  0
  6  9  1  0  0  0  0
  6 10  2  3  0  0  0
  7  8  2  0  0  0  0
  7 26  1  0  0  0  0
  8 11  1  0  0  0  0
  8 12  1  0  0  0  0
  9 27  1  0  0  0  0
  9 28  1  0  0  0  0
  9 29  1  0  0  0  0
 10 13  1  0  0  0  0
 10 30  1  0  0  0  0
 11 31  1  0  0  0  0
 11 32  1  0  0  0  0
 11 33  1  0  0  0  0
 12 34  1  0  0  0  0
 12 35  1  0  0  0  0
 12 36  1  0  0  0  0
 13 37  1  0  0  0  0
 14 15  1  0  0  0  0
 14 16  2  0  0  0  0
 15 17  2  0  0  0  0
 15 20  1  0  0  0  0
 16 18  1  0  0  0  0
 16 38  1  0  0  0  0
 17 19  1  0  0  0  0
 17 39  1  0  0  0  0
 18 19  2  0  0  0  0
 18 40  1  0  0  0  0
 19 41  1  0  0  0  0
 21 42  1  0  0  0  0
 21 43  1  0  0  0  0
 21 44  1  0  0  0  0
M  END
> <PUBCHEM_COMPOUND_CID>
105653

> <PUBCHEM_CONFORMER_RMSD>
0.8

> <PUBCHEM_CONFORMER_DIVERSEORDER>
2
27
209
105
230
23
16
32
127
237
134
122
62
252
113
174
223
93
80
22
10
210
84
185
39
172
58
50
60
164
225
238
239
25
43
128
81
61
59
140
48
6
165
224
217
186
180
188
195
159
21
245
34
199
3
9
138
55
194
97
181
100
72
234
233
4
201
183
163
12
146
18
220
64
121
15
139
101
129
187
142
20
235
227
250
37
117
83
115
88
13
53
68
71
90
240
125
63
79
85
175
179
95
40
76
41
65
204
218
170
29
229
123
135
89
56
198
33
47
73
157
30
66
160
247
74
7
36
202
94
86
162
177
46
57
38
149
147
182
150
67
14
130
54
108
104
228
8
49
192
148
211
44
120
197
107
69
216
171
92
5
31
42
131
96
109
189
99
206
203
212
232
124
106
145
78
154
19
208
1
75
205
184
215
152
236
241
77
111
35
213
51
82
144
87
132
169
196
26
168
24
248
91
119
153
28
118
45
137
133
178
193
11
222
98
17
246
126
190
103
214
244
207
151
191
136
243
70
143
155
242
116
52
173
114
231
166
226
141
161
219
167
158
176
251
200
221
102
112
156
110
249

> <PUBCHEM_MMFF94_PARTIAL_CHARGES>
28
1 -0.43
10 -0.14
11 0.14
12 0.14
13 0.38
14 0.18
15 0.09
16 -0.15
17 -0.15
18 -0.15
19 -0.15
2 -0.57
20 0.63
21 0.28
26 0.15
3 -0.63
30 0.15
37 0.06
38 0.15
39 0.15
4 0.14
40 0.15
41 0.15
5 0.14
6 -0.28
7 -0.29
8 -0.28
9 0.14

> <PUBCHEM_EFFECTIVE_ROTOR_COUNT>
7

> <PUBCHEM_PHARMACOPHORE_FEATURES>
6
1 2 acceptor
1 3 acceptor
1 9 hydrophobe
3 8 11 12 hydrophobe
4 4 5 6 7 hydrophobe
6 14 15 16 17 18 19 rings

> <PUBCHEM_HEAVY_ATOM_COUNT>
21

> <PUBCHEM_ATOM_DEF_STEREO_COUNT>
0

> <PUBCHEM_ATOM_UDEF_STEREO_COUNT>
0

> <PUBCHEM_BOND_DEF_STEREO_COUNT>
0

> <PUBCHEM_BOND_UDEF_STEREO_COUNT>
1

> <PUBCHEM_ISOTOPIC_ATOM_COUNT>
0

> <PUBCHEM_COMPONENT_COUNT>
1

> <PUBCHEM_CACTVS_TAUTO_COUNT>
1

> <PUBCHEM_CONFORMER_ID>
00019CB500000002

> <PUBCHEM_MMFF94_ENERGY>
49.0755

> <PUBCHEM_FEATURE_SELFOVERLAP>
30.472

> <PUBCHEM_SHAPE_FINGERPRINT>
10366900 7 17531540784337735720
10498660 4 15358269168923443078
11315621 136 18410857672058100462
12616971 3 18337680732734018689
12633257 1 15984822696933273263
12670546 177 18335139761188200051
13167823 11 18342458110682858443
15250474 111 18342449301842720983
15537594 2 17988080131789311775
17844677 252 18338243669781627121
17857418 61 18342732979899803499
18915474 69 18342454829280358683
20645477 70 18333735723335792114
21054139 6 18411132554486754658
21709351 56 18336547097221713141
221357 26 18043538205013278772
22950370 63 18201440303045058859
235170 7 17749658654419625439
23559900 14 18270673178322227129
23596394 208 17822568317944058211
249057 3 18195809557796685105
3004659 81 18342172224637799299
312423 11 18272093781536266121
338550 245 17845934030851010327
5281201 14 18261676969583146420
5312544 6 18339364161886521575
6327066 14 17755026629259194700
633830 44 17968380052920658273
7495541 125 17632291280858331938

> <PUBCHEM_SHAPE_MULTIPOLES>
415.45
12.88
3.3
1.31
11.5
0.06
0.32
-4
3.84
-3.04
0.64
0.7
0.24
-1.54

> <PUBCHEM_SHAPE_SELFOVERLAP>
841.111

> <PUBCHEM_SHAPE_VOLUME>
243.6

> <PUBCHEM_COORDINATE_TYPE>
2
5
10

$$$$
