105896
  -OEChem-11232109423D

 48 48  0     0  0  0  0  0  0999 V2000
    1.0042   -2.2821   -0.4988 O   0  0  0  0  0  0  0  0  0  0  0  0
    1.1973   -0.3836   -1.7863 O   0  0  0  0  0  0  0  0  0  0  0  0
    2.6528    1.4965   -0.3945 N   0  0  0  0  0  0  0  0  0  0  0  0
   -3.5119    0.7411    0.4934 C   0  0  0  0  0  0  0  0  0  0  0  0
   -2.6261    1.5861   -0.4267 C   0  0  0  0  0  0  0  0  0  0  0  0
   -4.8262    0.3664   -0.1944 C   0  0  0  0  0  0  0  0  0  0  0  0
   -1.2965    1.9291    0.2483 C   0  0  0  0  0  0  0  0  0  0  0  0
   -5.7434   -0.5003    0.6740 C   0  0  0  0  0  0  0  0  0  0  0  0
   -0.3521    2.7493   -0.6388 C   0  0  0  0  0  0  0  0  0  0  0  0
   -7.0840   -0.8874    0.0447 C   0  0  0  0  0  0  0  0  0  0  0  0
    0.9518    3.1791    0.0300 C   0  0  0  0  0  0  0  0  0  0  0  0
   -7.9273   -1.7989    0.9226 C   0  0  0  0  0  0  0  0  0  0  0  0
    1.7775    1.9847    0.4222 C   0  0  0  0  0  0  0  0  0  0  0  0
    3.3530    0.3680    0.0632 C   0  0  0  0  0  0  0  0  0  0  0  0
    2.8723   -0.9194   -0.1761 C   0  0  0  0  0  0  0  0  0  0  0  0
    4.5447    0.5480    0.7657 C   0  0  0  0  0  0  0  0  0  0  0  0
    3.5833   -2.0267    0.2869 C   0  0  0  0  0  0  0  0  0  0  0  0
    5.2556   -0.5592    1.2285 C   0  0  0  0  0  0  0  0  0  0  0  0
    4.7750   -1.8465    0.9892 C   0  0  0  0  0  0  0  0  0  0  0  0
    1.6307   -1.1374   -0.9068 C   0  0  0  0  0  0  0  0  0  0  0  0
   -0.2307   -2.6070   -1.1462 C   0  0  0  0  0  0  0  0  0  0  0  0
   -3.7242    1.2963    1.4149 H   0  0  0  0  0  0  0  0  0  0  0  0
   -2.9783   -0.1729    0.7810 H   0  0  0  0  0  0  0  0  0  0  0  0
   -3.1497    2.5102   -0.6991 H   0  0  0  0  0  0  0  0  0  0  0  0
   -2.4309    1.0374   -1.3560 H   0  0  0  0  0  0  0  0  0  0  0  0
   -4.6093   -0.1707   -1.1260 H   0  0  0  0  0  0  0  0  0  0  0  0
   -5.3622    1.2817   -0.4745 H   0  0  0  0  0  0  0  0  0  0  0  0
   -0.7988    0.9974    0.5436 H   0  0  0  0  0  0  0  0  0  0  0  0
   -1.4950    2.4885    1.1709 H   0  0  0  0  0  0  0  0  0  0  0  0
   -5.9390    0.0277    1.6160 H   0  0  0  0  0  0  0  0  0  0  0  0
   -5.2034   -1.4177    0.9415 H   0  0  0  0  0  0  0  0  0  0  0  0
   -0.1232    2.1686   -1.5411 H   0  0  0  0  0  0  0  0  0  0  0  0
   -0.8781    3.6520   -0.9733 H   0  0  0  0  0  0  0  0  0  0  0  0
   -6.9010   -1.3899   -0.9125 H   0  0  0  0  0  0  0  0  0  0  0  0
   -7.6540    0.0222   -0.1782 H   0  0  0  0  0  0  0  0  0  0  0  0
    0.7516    3.7700    0.9297 H   0  0  0  0  0  0  0  0  0  0  0  0
    1.5311    3.7979   -0.6641 H   0  0  0  0  0  0  0  0  0  0  0  0
   -8.1592   -1.3156    1.8769 H   0  0  0  0  0  0  0  0  0  0  0  0
   -8.8710   -2.0406    0.4240 H   0  0  0  0  0  0  0  0  0  0  0  0
   -7.4015   -2.7360    1.1309 H   0  0  0  0  0  0  0  0  0  0  0  0
    1.5653    1.5310    1.4079 H   0  0  0  0  0  0  0  0  0  0  0  0
    4.9290    1.5466    0.9568 H   0  0  0  0  0  0  0  0  0  0  0  0
    3.2446   -3.0433    0.1052 H   0  0  0  0  0  0  0  0  0  0  0  0
    6.1840   -0.4191    1.7743 H   0  0  0  0  0  0  0  0  0  0  0  0
    5.3306   -2.7084    1.3468 H   0  0  0  0  0  0  0  0  0  0  0  0
   -0.6075   -3.5375   -0.7138 H   0  0  0  0  0  0  0  0  0  0  0  0
   -0.0667   -2.7562   -2.2175 H   0  0  0  0  0  0  0  0  0  0  0  0
   -0.9659   -1.8150   -0.9743 H   0  0  0  0  0  0  0  0  0  0  0  0
  1 20  1  0  0  0  0
  1 21  1  0  0  0  0
  2 20  2  0  0  0  0
  3 13  2  0  0  0  0
  3 14  1  0  0  0  0
  4  5  1  0  0  0  0
  4  6  1  0  0  0  0
  4 22  1  0  0  0  0
  4 23  1  0  0  0  0
  5  7  1  0  0  0  0
  5 24  1  0  0  0  0
  5 25  1  0  0  0  0
  6  8  1  0  0  0  0
  6 26  1  0  0  0  0
  6 27  1  0  0  0  0
  7  9  1  0  0  0  0
  7 28  1  0  0  0  0
  7 29  1  0  0  0  0
  8 10  1  0  0  0  0
  8 30  1  0  0  0  0
  8 31  1  0  0  0  0
  9 11  1  0  0  0  0
  9 32  1  0  0  0  0
  9 33  1  0  0  0  0
 10 12  1  0  0  0  0
 10 34  1  0  0  0  0
 10 35  1  0  0  0  0
 11 13  1  0  0  0  0
 11 36  1  0  0  0  0
 11 37  1  0  0  0  0
 12 38  1  0  0  0  0
 12 39  1  0  0  0  0
 12 40  1  0  0  0  0
 13 41  1  0  0  0  0
 14 15  1  0  0  0  0
 14 16  2  0  0  0  0
 15 17  2  0  0  0  0
 15 20  1  0  0  0  0
 16 18  1  0  0  0  0
 16 42  1  0  0  0  0
 17 19  1  0  0  0  0
 17 43  1  0  0  0  0
 18 19  2  0  0  0  0
 18 44  1  0  0  0  0
 19 45  1  0  0  0  0
 21 46  1  0  0  0  0
 21 47  1  0  0  0  0
 21 48  1  0  0  0  0
M  END
> <PUBCHEM_COMPOUND_CID>
105896

> <PUBCHEM_CONFORMER_RMSD>
1.2

> <PUBCHEM_CONFORMER_DIVERSEORDER>
1
67
45
90
48
96
52
12
57
64
18
40
72
73
87
93
85
91
78
66
49
54
44
42
31
8
28
74
10
80
25
14
3
58
68
59
51
47
89
37
21
46
43
81
32
88
61
79
2
22
38
9
19
84
23
4
30
60
62
13
16
15
7
86
55
27
20
92
95
50
76
41
36
26
6
33
63
5
71
11
24
94
77
29
17
70
82
34
97
39
69
83
56
35
53
65
75

> <PUBCHEM_MMFF94_PARTIAL_CHARGES>
18
1 -0.43
11 0.06
13 0.33
14 0.18
15 0.09
16 -0.15
17 -0.15
18 -0.15
19 -0.15
2 -0.57
20 0.63
21 0.28
3 -0.63
41 0.06
42 0.15
43 0.15
44 0.15
45 0.15

> <PUBCHEM_EFFECTIVE_ROTOR_COUNT>
11

> <PUBCHEM_PHARMACOPHORE_FEATURES>
4
1 12 hydrophobe
1 2 acceptor
1 3 acceptor
6 14 15 16 17 18 19 rings

> <PUBCHEM_HEAVY_ATOM_COUNT>
21

> <PUBCHEM_ATOM_DEF_STEREO_COUNT>
0

> <PUBCHEM_ATOM_UDEF_STEREO_COUNT>
0

> <PUBCHEM_BOND_DEF_STEREO_COUNT>
0

> <PUBCHEM_BOND_UDEF_STEREO_COUNT>
0

> <PUBCHEM_ISOTOPIC_ATOM_COUNT>
0

> <PUBCHEM_COMPONENT_COUNT>
1

> <PUBCHEM_CACTVS_TAUTO_COUNT>
3

> <PUBCHEM_CONFORMER_ID>
00019DA800000001

> <PUBCHEM_MMFF94_ENERGY>
35.2611

> <PUBCHEM_FEATURE_SELFOVERLAP>
20.302

> <PUBCHEM_SHAPE_FINGERPRINT>
10688039 33 18113897135016669845
11828532 37 17387143155624845395
12166972 35 17676491640047883903
13402501 40 18408603652257383011
13533116 47 18341335612796783777
14178342 30 17912931586863740432
14251751 18 18187082837233799021
15183329 4 7853582305700460943
17492 89 18120651327856836306
1979834 28 17703799106545603703
20028762 73 18202844357471246943
20261772 1 18201146673115715116
21197605 99 18341614888349220915
21304304 249 18408040706092929415
21315764 119 15574706981364857083
21585482 310 17968386740553918979
21623969 137 18342176674561157663
3680242 22 18411144610776115027
439807 62 18186522112310527939
465052 167 18408885143955254169
5718773 13 18187640258862827091
59682541 35 18341037589342334360
59682541 52 13767920213443935817
6438718 38 17488441110056354134

> <PUBCHEM_SHAPE_MULTIPOLES>
415.45
15.84
3.35
1.11
33.6
1.11
0.15
-10.56
-6.98
-0.78
0.38
-0.42
-0.39
0.39

> <PUBCHEM_SHAPE_SELFOVERLAP>
820.873

> <PUBCHEM_SHAPE_VOLUME>
248.2

> <PUBCHEM_COORDINATE_TYPE>
2
5
10

$$$$
