105844
  -OEChem-11232108573D

 26 26  0     0  0  0  0  0  0999 V2000
   -0.4689   -0.0104   -0.8698 O   0  0  0  0  0  0  0  0  0  0  0  0
    2.8306   -1.1777    0.2686 O   0  0  0  0  0  0  0  0  0  0  0  0
   -1.1939   -0.0065    1.3401 O   0  0  0  0  0  0  0  0  0  0  0  0
    0.9676    2.3449   -0.3971 O   0  0  0  0  0  0  0  0  0  0  0  0
   -2.7809    0.0206   -0.4998 C   0  0  0  0  0  0  0  0  0  0  0  0
   -3.8942   -0.0001    0.5445 C   0  0  0  0  0  0  0  0  0  0  0  0
   -1.4064    0.0039    0.1347 C   0  0  0  0  0  0  0  0  0  0  0  0
   -5.2679    0.0504   -0.1042 C   0  0  0  0  0  0  0  0  0  0  0  0
    0.8378   -0.0266   -0.4226 C   0  0  0  0  0  0  0  0  0  0  0  0
    1.5149   -1.1686   -0.1836 C   0  0  0  0  0  0  0  0  0  0  0  0
    1.5279    1.2727   -0.1976 C   0  0  0  0  0  0  0  0  0  0  0  0
    0.9437   -2.5397   -0.3694 C   0  0  0  0  0  0  0  0  0  0  0  0
    2.9226    1.2189    0.2796 C   0  0  0  0  0  0  0  0  0  0  0  0
    3.4670    0.0182    0.4766 C   0  0  0  0  0  0  0  0  0  0  0  0
   -2.8620    0.9271   -1.1101 H   0  0  0  0  0  0  0  0  0  0  0  0
   -2.8692   -0.8573   -1.1497 H   0  0  0  0  0  0  0  0  0  0  0  0
   -3.8147   -0.9058    1.1575 H   0  0  0  0  0  0  0  0  0  0  0  0
   -3.7855    0.8529    1.2250 H   0  0  0  0  0  0  0  0  0  0  0  0
   -6.0497    0.0333    0.6616 H   0  0  0  0  0  0  0  0  0  0  0  0
   -5.3900    0.9646   -0.6938 H   0  0  0  0  0  0  0  0  0  0  0  0
   -5.4211   -0.8085   -0.7654 H   0  0  0  0  0  0  0  0  0  0  0  0
    1.5697   -3.1162   -1.0584 H   0  0  0  0  0  0  0  0  0  0  0  0
   -0.0710   -2.5275   -0.7781 H   0  0  0  0  0  0  0  0  0  0  0  0
    0.9136   -3.0664    0.5898 H   0  0  0  0  0  0  0  0  0  0  0  0
    3.4624    2.1399    0.4567 H   0  0  0  0  0  0  0  0  0  0  0  0
    4.4788   -0.1329    0.8244 H   0  0  0  0  0  0  0  0  0  0  0  0
  1  7  1  0  0  0  0
  1  9  1  0  0  0  0
  2 10  1  0  0  0  0
  2 14  1  0  0  0  0
  3  7  2  0  0  0  0
  4 11  2  0  0  0  0
  5  6  1  0  0  0  0
  5  7  1  0  0  0  0
  5 15  1  0  0  0  0
  5 16  1  0  0  0  0
  6  8  1  0  0  0  0
  6 17  1  0  0  0  0
  6 18  1  0  0  0  0
  8 19  1  0  0  0  0
  8 20  1  0  0  0  0
  8 21  1  0  0  0  0
  9 10  2  0  0  0  0
  9 11  1  0  0  0  0
 10 12  1  0  0  0  0
 11 13  1  0  0  0  0
 12 22  1  0  0  0  0
 12 23  1  0  0  0  0
 12 24  1  0  0  0  0
 13 14  2  0  0  0  0
 13 25  1  0  0  0  0
 14 26  1  0  0  0  0
M  END
> <PUBCHEM_COMPOUND_CID>
105844

> <PUBCHEM_CONFORMER_RMSD>
0.6

> <PUBCHEM_CONFORMER_DIVERSEORDER>
1
37
46
41
34
31
43
53
48
17
45
35
55
47
10
58
56
2
40
52
49
54
39
9
22
5
36
33
19
59
15
25
50
30
14
51
57
38
26
21
28
20
44
12
24
4
6
7
8
42
3
13
16
27
11
18
32
23
29

> <PUBCHEM_MMFF94_PARTIAL_CHARGES>
14
1 -0.23
10 -0.06
11 0.54
12 0.14
13 -0.14
14 -0.07
2 -0.15
25 0.15
26 0.15
3 -0.57
4 -0.57
5 0.06
7 0.66
9 0.09

> <PUBCHEM_EFFECTIVE_ROTOR_COUNT>
4

> <PUBCHEM_PHARMACOPHORE_FEATURES>
5
1 2 acceptor
1 3 acceptor
1 4 acceptor
1 8 hydrophobe
6 2 9 10 11 13 14 rings

> <PUBCHEM_HEAVY_ATOM_COUNT>
14

> <PUBCHEM_ATOM_DEF_STEREO_COUNT>
0

> <PUBCHEM_ATOM_UDEF_STEREO_COUNT>
0

> <PUBCHEM_BOND_DEF_STEREO_COUNT>
0

> <PUBCHEM_BOND_UDEF_STEREO_COUNT>
0

> <PUBCHEM_ISOTOPIC_ATOM_COUNT>
0

> <PUBCHEM_COMPONENT_COUNT>
1

> <PUBCHEM_CACTVS_TAUTO_COUNT>
3

> <PUBCHEM_CONFORMER_ID>
00019D7400000001

> <PUBCHEM_MMFF94_ENERGY>
23.7544

> <PUBCHEM_FEATURE_SELFOVERLAP>
25.373

> <PUBCHEM_SHAPE_FINGERPRINT>
10219947 1 18410292510433209836
10980938 120 18411702066901686669
11471102 20 18410009935950250237
12251169 10 18335699472472399671
12346645 6 18411700993202073862
13380535 76 18409450323213161907
13922767 16 18334856125848175289
14251717 144 18411418406013690063
14252887 29 18336833000172809291
14344429 50 14923947876848084158
14993402 34 18341338868091284892
15219456 202 18260821566948604245
15775835 57 17917428778077528104
16945 1 18410854361049089782
18186145 218 18341623590147647743
20201158 50 18260269629074993395
20233049 118 14129051517721193895
20279233 1 17967820444541320723
20606313 2 18408322189696140689
20645477 70 18410571752391371919
20871998 22 18125724491734561294
23402539 116 17894620479333549575
2748010 2 18051111615936463140
3060560 45 18343025492916052662
33824 294 18408885122554491683
57426455 114 17240482528709194377
69090 78 18261107504697197459
7364860 26 18059581239092671630
77492 1 17703782635034734999
8272917 22 18342182128990444527

> <PUBCHEM_SHAPE_MULTIPOLES>
264.64
7.35
1.82
0.84
9.87
0.45
0.1
-0.64
0.91
-1.71
-0.28
0.17
-0.01
-0.01

> <PUBCHEM_SHAPE_SELFOVERLAP>
536.652

> <PUBCHEM_SHAPE_VOLUME>
153.9

> <PUBCHEM_COORDINATE_TYPE>
2
5
10

$$$$
