106217
  -OEChem-11232109063D

 18 17  0     0  0  0  0  0  0999 V2000
   -0.3908    1.4937    0.4460 S   0  0  0  0  0  0  0  0  0  0  0  0
   -1.9491    0.7473   -0.6620 S   0  0  0  0  0  0  0  0  0  0  0  0
    0.3095   -2.0453   -0.2318 O   0  0  0  0  0  0  0  0  0  0  0  0
    0.9317    0.2920    0.0519 C   0  0  0  0  0  0  0  0  0  0  0  0
    2.1962    0.6506    0.8317 C   0  0  0  0  0  0  0  0  0  0  0  0
    1.1975    0.3190   -1.4528 C   0  0  0  0  0  0  0  0  0  0  0  0
    0.4334   -1.0708    0.5046 C   0  0  0  0  0  0  0  0  0  0  0  0
   -2.7285   -0.3865    0.5124 C   0  0  0  0  0  0  0  0  0  0  0  0
    2.0242    0.6403    1.9148 H   0  0  0  0  0  0  0  0  0  0  0  0
    2.5782    1.6399    0.5547 H   0  0  0  0  0  0  0  0  0  0  0  0
    2.9922   -0.0775    0.6341 H   0  0  0  0  0  0  0  0  0  0  0  0
    1.4360    1.3285   -1.8081 H   0  0  0  0  0  0  0  0  0  0  0  0
    2.0618   -0.3136   -1.6928 H   0  0  0  0  0  0  0  0  0  0  0  0
    0.3720   -0.0742   -2.0547 H   0  0  0  0  0  0  0  0  0  0  0  0
    0.2050   -1.1644    1.5824 H   0  0  0  0  0  0  0  0  0  0  0  0
   -2.1613   -1.3100    0.6320 H   0  0  0  0  0  0  0  0  0  0  0  0
   -3.7144   -0.6587    0.1238 H   0  0  0  0  0  0  0  0  0  0  0  0
   -2.8743    0.0929    1.4843 H   0  0  0  0  0  0  0  0  0  0  0  0
  1  2  1  0  0  0  0
  1  4  1  0  0  0  0
  2  8  1  0  0  0  0
  3  7  2  0  0  0  0
  4  5  1  0  0  0  0
  4  6  1  0  0  0  0
  4  7  1  0  0  0  0
  5  9  1  0  0  0  0
  5 10  1  0  0  0  0
  5 11  1  0  0  0  0
  6 12  1  0  0  0  0
  6 13  1  0  0  0  0
  6 14  1  0  0  0  0
  7 15  1  0  0  0  0
  8 16  1  0  0  0  0
  8 17  1  0  0  0  0
  8 18  1  0  0  0  0
M  END
> <PUBCHEM_COMPOUND_CID>
106217

> <PUBCHEM_CONFORMER_RMSD>
0.6

> <PUBCHEM_CONFORMER_DIVERSEORDER>
2
8
6
5
11
4
9
7
1
10
3

> <PUBCHEM_MMFF94_PARTIAL_CHARGES>
7
1 -0.23
15 0.06
2 -0.23
3 -0.57
4 0.29
7 0.45
8 0.23

> <PUBCHEM_EFFECTIVE_ROTOR_COUNT>
3

> <PUBCHEM_PHARMACOPHORE_FEATURES>
3
1 3 acceptor
1 8 hydrophobe
3 4 5 6 hydrophobe

> <PUBCHEM_HEAVY_ATOM_COUNT>
8

> <PUBCHEM_ATOM_DEF_STEREO_COUNT>
0

> <PUBCHEM_ATOM_UDEF_STEREO_COUNT>
0

> <PUBCHEM_BOND_DEF_STEREO_COUNT>
0

> <PUBCHEM_BOND_UDEF_STEREO_COUNT>
0

> <PUBCHEM_ISOTOPIC_ATOM_COUNT>
0

> <PUBCHEM_COMPONENT_COUNT>
1

> <PUBCHEM_CACTVS_TAUTO_COUNT>
1

> <PUBCHEM_CONFORMER_ID>
00019EE900000002

> <PUBCHEM_MMFF94_ENERGY>
10.1607

> <PUBCHEM_FEATURE_SELFOVERLAP>
15.223

> <PUBCHEM_SHAPE_FINGERPRINT>
18185500 45 17401771822059635131
20711978 78 18057884632842886623
21040471 1 18337392746154207778
21922407 69 17630298893027532485
23235687 12 17240767246549951533
24536 1 17823710659101871317
29004967 10 18411416194174163017
5084963 1 17967255286336321272
5943 1 10541321325187419908

> <PUBCHEM_SHAPE_MULTIPOLES>
166.47
3.04
1.63
1.14
1.58
0.57
-0.31
-0.25
0.4
-0.02
0.1
-0.29
-0.17
0.22

> <PUBCHEM_SHAPE_SELFOVERLAP>
281.053

> <PUBCHEM_SHAPE_VOLUME>
115.3

> <PUBCHEM_COORDINATE_TYPE>
2
5
10

$$$$
