106530
  -OEChem-11232108403D

 45 44  0     1  0  0  0  0  0999 V2000
   -3.7606   -3.1434    0.2128 S   0  0  0  0  0  0  0  0  0  0  0  0
   -2.4615    0.4981    0.0397 O   0  0  0  0  0  0  0  0  0  0  0  0
    1.0705   -1.4858   -0.0939 O   0  0  0  0  0  0  0  0  0  0  0  0
   -3.3286   -0.7956   -1.6584 O   0  0  0  0  0  0  0  0  0  0  0  0
   -0.1023   -0.8911    1.8010 O   0  0  0  0  0  0  0  0  0  0  0  0
   -0.7087    2.8484    0.4034 C   0  0  0  0  0  0  0  0  0  0  0  0
    4.5558   -0.0028   -0.3270 C   0  0  0  0  0  0  0  0  0  0  0  0
   -2.2026    2.8860    0.0429 C   0  0  0  0  0  0  0  0  0  0  0  0
    3.2922   -0.7977   -0.6936 C   0  0  0  0  0  0  0  0  0  0  0  0
   -2.6733    1.6726   -0.7501 C   0  0  0  0  0  0  0  0  0  0  0  0
    2.1802   -0.6949    0.3435 C   0  0  0  0  0  0  0  0  0  0  0  0
    0.1329    2.7918   -0.8736 C   0  0  0  0  0  0  0  0  0  0  0  0
   -0.2833    4.0490    1.2497 C   0  0  0  0  0  0  0  0  0  0  0  0
    5.1269   -0.5160    0.9970 C   0  0  0  0  0  0  0  0  0  0  0  0
    5.6275   -0.0777   -1.4154 C   0  0  0  0  0  0  0  0  0  0  0  0
   -2.5134   -1.8229    0.4024 C   0  0  1  0  0  0  0  0  0  0  0  0
   -1.1016   -2.3444    0.1225 C   0  0  0  0  0  0  0  0  0  0  0  0
   -2.8383   -0.6811   -0.5428 C   0  0  0  0  0  0  0  0  0  0  0  0
   -0.0120   -1.4925    0.7398 C   0  0  0  0  0  0  0  0  0  0  0  0
   -0.5016    1.9455    0.9908 H   0  0  0  0  0  0  0  0  0  0  0  0
    4.2828    1.0523   -0.1984 H   0  0  0  0  0  0  0  0  0  0  0  0
   -2.4286    3.7965   -0.5254 H   0  0  0  0  0  0  0  0  0  0  0  0
   -2.7775    2.9386    0.9764 H   0  0  0  0  0  0  0  0  0  0  0  0
    3.5422   -1.8554   -0.8505 H   0  0  0  0  0  0  0  0  0  0  0  0
    2.9058   -0.4464   -1.6592 H   0  0  0  0  0  0  0  0  0  0  0  0
   -3.7471    1.7745   -0.9476 H   0  0  0  0  0  0  0  0  0  0  0  0
   -2.1554    1.5846   -1.7103 H   0  0  0  0  0  0  0  0  0  0  0  0
    1.8636    0.3483    0.4556 H   0  0  0  0  0  0  0  0  0  0  0  0
    2.5084   -1.0822    1.3128 H   0  0  0  0  0  0  0  0  0  0  0  0
    1.1995    2.8772   -0.6363 H   0  0  0  0  0  0  0  0  0  0  0  0
    0.0064    1.8412   -1.4003 H   0  0  0  0  0  0  0  0  0  0  0  0
   -0.1226    3.6064   -1.5596 H   0  0  0  0  0  0  0  0  0  0  0  0
   -0.8625    4.0909    2.1780 H   0  0  0  0  0  0  0  0  0  0  0  0
    0.7762    3.9827    1.5186 H   0  0  0  0  0  0  0  0  0  0  0  0
   -0.4396    4.9893    0.7102 H   0  0  0  0  0  0  0  0  0  0  0  0
    5.2910   -1.5987    0.9704 H   0  0  0  0  0  0  0  0  0  0  0  0
    4.4687   -0.2852    1.8397 H   0  0  0  0  0  0  0  0  0  0  0  0
    6.0891   -0.0379    1.2126 H   0  0  0  0  0  0  0  0  0  0  0  0
    5.9583   -1.1096   -1.5752 H   0  0  0  0  0  0  0  0  0  0  0  0
    6.5025    0.5228   -1.1455 H   0  0  0  0  0  0  0  0  0  0  0  0
    5.2391    0.3041   -2.3653 H   0  0  0  0  0  0  0  0  0  0  0  0
   -2.6126   -1.4676    1.4339 H   0  0  0  0  0  0  0  0  0  0  0  0
   -0.9606   -3.3494    0.5395 H   0  0  0  0  0  0  0  0  0  0  0  0
   -0.9348   -2.4051   -0.9607 H   0  0  0  0  0  0  0  0  0  0  0  0
   -4.8198   -2.4103    0.5866 H   0  0  0  0  0  0  0  0  0  0  0  0
  1 16  1  0  0  0  0
  1 45  1  0  0  0  0
  2 10  1  0  0  0  0
  2 18  1  0  0  0  0
  3 11  1  0  0  0  0
  3 19  1  0  0  0  0
  4 18  2  0  0  0  0
  5 19  2  0  0  0  0
  6  8  1  0  0  0  0
  6 12  1  0  0  0  0
  6 13  1  0  0  0  0
  6 20  1  0  0  0  0
  7  9  1  0  0  0  0
  7 14  1  0  0  0  0
  7 15  1  0  0  0  0
  7 21  1  0  0  0  0
  8 10  1  0  0  0  0
  8 22  1  0  0  0  0
  8 23  1  0  0  0  0
  9 11  1  0  0  0  0
  9 24  1  0  0  0  0
  9 25  1  0  0  0  0
 10 26  1  0  0  0  0
 10 27  1  0  0  0  0
 11 28  1  0  0  0  0
 11 29  1  0  0  0  0
 12 30  1  0  0  0  0
 12 31  1  0  0  0  0
 12 32  1  0  0  0  0
 13 33  1  0  0  0  0
 13 34  1  0  0  0  0
 13 35  1  0  0  0  0
 14 36  1  0  0  0  0
 14 37  1  0  0  0  0
 14 38  1  0  0  0  0
 15 39  1  0  0  0  0
 15 40  1  0  0  0  0
 15 41  1  0  0  0  0
 16 17  1  0  0  0  0
 16 18  1  0  0  0  0
 16 42  1  0  0  0  0
 17 19  1  0  0  0  0
 17 43  1  0  0  0  0
 17 44  1  0  0  0  0
M  END
> <PUBCHEM_COMPOUND_CID>
106530

> <PUBCHEM_CONFORMER_RMSD>
1.4

> <PUBCHEM_CONFORMER_DIVERSEORDER>
2
35
34
6
26
5
30
29
38
12
13
9
24
14
28
18
17
10
23
15
16
7
22
1
4
11
36
25
31
37
19
3
8
33
27
32
20
21

> <PUBCHEM_MMFF94_PARTIAL_CHARGES>
12
1 -0.41
10 0.28
11 0.28
16 0.29
17 0.06
18 0.66
19 0.66
2 -0.43
3 -0.43
4 -0.57
45 0.18
5 -0.57

> <PUBCHEM_EFFECTIVE_ROTOR_COUNT>
11

> <PUBCHEM_PHARMACOPHORE_FEATURES>
4
1 4 acceptor
1 5 acceptor
3 6 12 13 hydrophobe
3 7 14 15 hydrophobe

> <PUBCHEM_HEAVY_ATOM_COUNT>
19

> <PUBCHEM_ATOM_DEF_STEREO_COUNT>
0

> <PUBCHEM_ATOM_UDEF_STEREO_COUNT>
1

> <PUBCHEM_BOND_DEF_STEREO_COUNT>
0

> <PUBCHEM_BOND_UDEF_STEREO_COUNT>
0

> <PUBCHEM_ISOTOPIC_ATOM_COUNT>
0

> <PUBCHEM_COMPONENT_COUNT>
1

> <PUBCHEM_CACTVS_TAUTO_COUNT>
1

> <PUBCHEM_CONFORMER_ID>
0001A02200000002

> <PUBCHEM_MMFF94_ENERGY>
23.467

> <PUBCHEM_FEATURE_SELFOVERLAP>
20.297

> <PUBCHEM_SHAPE_FINGERPRINT>
10670039 82 18335432244788524814
10937287 8 17691127037209234496
1100329 8 18410859858745041297
13994607 96 17677920983509879224
14081887 123 18269261396881745344
14123250 116 17981610368641952080
14790565 3 18051978017893547657
17492 54 18188195504256744949
17818456 19 18120077400357312434
20765182 40 18341039728378270696
21141583 151 18342172263318982656
21304253 13 18341344391831002827
23352939 185 18198354050809335659
23402539 116 18410851075178062518
235170 7 17489590030993158358
23557571 272 18270974465883009782
23590187 85 18267586814417346992
5312544 6 17188123493132936441

> <PUBCHEM_SHAPE_MULTIPOLES>
371.38
9.05
4.52
1.27
14.51
4.52
0.02
-5.1
-2.46
-4.81
1.12
0.4
0.18
0.09

> <PUBCHEM_SHAPE_SELFOVERLAP>
692.517

> <PUBCHEM_SHAPE_VOLUME>
234.4

> <PUBCHEM_COORDINATE_TYPE>
2
5
10

$$$$
