106523
  -OEChem-11232109263D

 35 34  0     0  0  0  0  0  0999 V2000
   -0.8050   -2.5349   -0.4448 O   0  0  0  0  0  0  0  0  0  0  0  0
    0.7911    1.4449    0.0665 C   0  0  0  0  0  0  0  0  0  0  0  0
    1.9446    0.6919   -0.6057 C   0  0  0  0  0  0  0  0  0  0  0  0
   -0.2641    1.9408   -0.9262 C   0  0  0  0  0  0  0  0  0  0  0  0
    2.9877    0.1779    0.3899 C   0  0  0  0  0  0  0  0  0  0  0  0
   -1.4236    2.6861   -0.2524 C   0  0  0  0  0  0  0  0  0  0  0  0
    4.1361   -0.5825   -0.2781 C   0  0  0  0  0  0  0  0  0  0  0  0
   -2.2088    1.8734    0.7826 C   0  0  0  0  0  0  0  0  0  0  0  0
    5.2141   -1.0300    0.6970 C   0  0  0  0  0  0  0  0  0  0  0  0
   -2.7901    0.6111    0.2154 C   0  0  0  0  0  0  0  0  0  0  0  0
   -2.4958   -0.6163    0.6691 C   0  0  0  0  0  0  0  0  0  0  0  0
   -3.0821   -1.8707    0.1058 C   0  0  0  0  0  0  0  0  0  0  0  0
   -2.0041   -2.7917   -0.4191 C   0  0  0  0  0  0  0  0  0  0  0  0
    1.1933    2.2999    0.6236 H   0  0  0  0  0  0  0  0  0  0  0  0
    0.3326    0.7744    0.8010 H   0  0  0  0  0  0  0  0  0  0  0  0
    2.4322    1.3539   -1.3317 H   0  0  0  0  0  0  0  0  0  0  0  0
    1.5391   -0.1564   -1.1709 H   0  0  0  0  0  0  0  0  0  0  0  0
    0.2123    2.6190   -1.6448 H   0  0  0  0  0  0  0  0  0  0  0  0
   -0.6493    1.0958   -1.5089 H   0  0  0  0  0  0  0  0  0  0  0  0
    2.4998   -0.4783    1.1212 H   0  0  0  0  0  0  0  0  0  0  0  0
    3.3963    1.0280    0.9501 H   0  0  0  0  0  0  0  0  0  0  0  0
   -1.0342    3.5886    0.2351 H   0  0  0  0  0  0  0  0  0  0  0  0
   -2.1113    3.0315   -1.0351 H   0  0  0  0  0  0  0  0  0  0  0  0
    3.7361   -1.4622   -0.7961 H   0  0  0  0  0  0  0  0  0  0  0  0
    4.5971    0.0543   -1.0427 H   0  0  0  0  0  0  0  0  0  0  0  0
   -3.0360    2.4907    1.1544 H   0  0  0  0  0  0  0  0  0  0  0  0
   -1.5772    1.6624    1.6531 H   0  0  0  0  0  0  0  0  0  0  0  0
    4.7980   -1.6972    1.4584 H   0  0  0  0  0  0  0  0  0  0  0  0
    5.6645   -0.1700    1.2025 H   0  0  0  0  0  0  0  0  0  0  0  0
    6.0065   -1.5681    0.1675 H   0  0  0  0  0  0  0  0  0  0  0  0
   -3.4905    0.7227   -0.6087 H   0  0  0  0  0  0  0  0  0  0  0  0
   -1.8062   -0.7242    1.5029 H   0  0  0  0  0  0  0  0  0  0  0  0
   -3.7772   -1.6681   -0.7157 H   0  0  0  0  0  0  0  0  0  0  0  0
   -3.6266   -2.4050    0.8911 H   0  0  0  0  0  0  0  0  0  0  0  0
   -2.3720   -3.7582   -0.8054 H   0  0  0  0  0  0  0  0  0  0  0  0
  1 13  2  0  0  0  0
  2  3  1  0  0  0  0
  2  4  1  0  0  0  0
  2 14  1  0  0  0  0
  2 15  1  0  0  0  0
  3  5  1  0  0  0  0
  3 16  1  0  0  0  0
  3 17  1  0  0  0  0
  4  6  1  0  0  0  0
  4 18  1  0  0  0  0
  4 19  1  0  0  0  0
  5  7  1  0  0  0  0
  5 20  1  0  0  0  0
  5 21  1  0  0  0  0
  6  8  1  0  0  0  0
  6 22  1  0  0  0  0
  6 23  1  0  0  0  0
  7  9  1  0  0  0  0
  7 24  1  0  0  0  0
  7 25  1  0  0  0  0
  8 10  1  0  0  0  0
  8 26  1  0  0  0  0
  8 27  1  0  0  0  0
  9 28  1  0  0  0  0
  9 29  1  0  0  0  0
  9 30  1  0  0  0  0
 10 11  2  3  0  0  0
 10 31  1  0  0  0  0
 11 12  1  0  0  0  0
 11 32  1  0  0  0  0
 12 13  1  0  0  0  0
 12 33  1  0  0  0  0
 12 34  1  0  0  0  0
 13 35  1  0  0  0  0
M  END
> <PUBCHEM_COMPOUND_CID>
106523

> <PUBCHEM_CONFORMER_RMSD>
0.8

> <PUBCHEM_CONFORMER_DIVERSEORDER>
1
30
238
51
319
125
17
237
3
293
342
138
6
150
284
220
250
41
56
37
339
95
260
246
131
38
322
79
86
115
234
264
155
31
332
244
15
132
148
317
195
19
22
83
35
335
271
78
330
107
290
87
279
94
223
134
139
222
99
324
96
60
43
180
197
88
75
247
13
67
299
90
164
261
50
34
36
153
252
158
203
122
8
184
116
28
39
62
200
225
119
201
58
71
181
300
10
204
269
231
57
277
124
198
240
312
12
177
194
130
140
174
25
297
168
63
108
215
340
11
111
14
113
233
205
188
281
292
74
212
334
2
45
98
77
179
143
268
157
236
169
288
32
327
196
245
76
243
185
272
101
102
318
211
80
182
313
283
66
120
23
315
126
309
191
282
144
206
199
256
18
276
221
257
161
160
61
263
55
341
147
9
251
189
311
166
104
304
128
129
262
192
110
248
33
5
216
178
114
117
73
109
52
85
171
296
47
106
84
253
159
172
100
146
254
316
42
328
65
337
230
105
72
314
266
321
154
249
235
208
4
326
81
59
29
218
255
151
44
307
280
329
320
46
141
24
202
136
142
275
173
214
70
16
274
298
232
193
40
190
213
305
92
338
137
7
145
187
219
270
68
209
26
343
294
53
112
308
302
49
89
301
259
176
27
310
303
121
54
20
165
323
331
21
123
258
133
64
286
91
103
118
241
149
224
278
291
175
207
170
127
135
162
226
325
289
267
93
48
183
242
186
295
287
152
273
229
163
217
336
239
285
265
156
306
227
69
82
97
210
167
333
228

> <PUBCHEM_MMFF94_PARTIAL_CHARGES>
9
1 -0.57
10 -0.29
11 -0.29
12 0.2
13 0.45
31 0.15
32 0.15
35 0.06
8 0.14

> <PUBCHEM_EFFECTIVE_ROTOR_COUNT>
9

> <PUBCHEM_PHARMACOPHORE_FEATURES>
2
1 1 acceptor
1 9 hydrophobe

> <PUBCHEM_HEAVY_ATOM_COUNT>
13

> <PUBCHEM_ATOM_DEF_STEREO_COUNT>
0

> <PUBCHEM_ATOM_UDEF_STEREO_COUNT>
0

> <PUBCHEM_BOND_DEF_STEREO_COUNT>
0

> <PUBCHEM_BOND_UDEF_STEREO_COUNT>
1

> <PUBCHEM_ISOTOPIC_ATOM_COUNT>
0

> <PUBCHEM_COMPONENT_COUNT>
1

> <PUBCHEM_CACTVS_TAUTO_COUNT>
3

> <PUBCHEM_CONFORMER_ID>
0001A01B00000001

> <PUBCHEM_MMFF94_ENERGY>
-1.8234

> <PUBCHEM_FEATURE_SELFOVERLAP>
10.148

> <PUBCHEM_SHAPE_FINGERPRINT>
12500047 106 18193269698520932488
12633257 1 17916882277753950984
12757275 245 18410013217426603016
1420 336 18265338493711852907
15006816 218 17908144274296504038
17834074 16 18340771434265976366
17977361 122 18409728482353774687
20291156 8 18192435379432108955
20621476 51 18338218398220879690
20724930 33 18410293652694355861
21634736 98 18188500201989639204
21650355 55 18413108342327093841
23402539 116 18272363183718714503
23598291 2 17749404649800681908
23728640 28 18411140203949583427
257057 1 18124593347630166213
568465 68 17275388715782276712
57583515 115 18411702045669709766
602551 16 18412543181266822722

> <PUBCHEM_SHAPE_MULTIPOLES>
261.66
7.89
3.37
0.88
12.2
0.87
-0.01
3.94
-1.77
-3.36
0.57
0.04
-0.12
-0.57

> <PUBCHEM_SHAPE_SELFOVERLAP>
473.948

> <PUBCHEM_SHAPE_VOLUME>
166.8

> <PUBCHEM_COORDINATE_TYPE>
2
5
10

$$$$
