106672
  -OEChem-11232109213D

 32 33  0     1  0  0  0  0  0999 V2000
   -2.6934    0.7320    0.2609 O   0  0  0  0  0  0  0  0  0  0  0  0
    0.2986    1.0575    0.0215 C   0  0  0  0  0  0  0  0  0  0  0  0
    1.5997    0.4616   -0.6130 C   0  0  2  0  0  0  0  0  0  0  0  0
    0.4256   -1.3735   -0.1442 C   0  0  1  0  0  0  0  0  0  0  0  0
   -0.5018   -0.2437    0.3822 C   0  0  2  0  0  0  0  0  0  0  0  0
    1.0573   -0.7471   -1.3863 C   0  0  0  0  0  0  0  0  0  0  0  0
    2.4797   -0.2565    0.4274 C   0  0  0  0  0  0  0  0  0  0  0  0
    1.6446   -1.4912    0.7908 C   0  0  0  0  0  0  0  0  0  0  0  0
   -1.9071   -0.3574   -0.2055 C   0  0  1  0  0  0  0  0  0  0  0  0
    0.5654    1.8997    1.2807 C   0  0  0  0  0  0  0  0  0  0  0  0
   -0.3947    1.9837   -0.9990 C   0  0  0  0  0  0  0  0  0  0  0  0
   -2.5739   -1.6650    0.1845 C   0  0  0  0  0  0  0  0  0  0  0  0
    2.1623    1.1743   -1.2215 H   0  0  0  0  0  0  0  0  0  0  0  0
   -0.0434   -2.3419   -0.3142 H   0  0  0  0  0  0  0  0  0  0  0  0
   -0.5930   -0.3261    1.4742 H   0  0  0  0  0  0  0  0  0  0  0  0
    1.8484   -1.3664   -1.8240 H   0  0  0  0  0  0  0  0  0  0  0  0
    0.3358   -0.4960   -2.1675 H   0  0  0  0  0  0  0  0  0  0  0  0
    2.7359    0.3530    1.2966 H   0  0  0  0  0  0  0  0  0  0  0  0
    3.4245   -0.5732   -0.0315 H   0  0  0  0  0  0  0  0  0  0  0  0
    2.2132   -2.4039    0.5792 H   0  0  0  0  0  0  0  0  0  0  0  0
    1.3644   -1.5049    1.8487 H   0  0  0  0  0  0  0  0  0  0  0  0
   -1.8941   -0.3019   -1.2983 H   0  0  0  0  0  0  0  0  0  0  0  0
    0.9565    1.3036    2.1108 H   0  0  0  0  0  0  0  0  0  0  0  0
    1.2839    2.6998    1.0716 H   0  0  0  0  0  0  0  0  0  0  0  0
   -0.3599    2.3641    1.6411 H   0  0  0  0  0  0  0  0  0  0  0  0
   -0.6928    1.4681   -1.9158 H   0  0  0  0  0  0  0  0  0  0  0  0
   -1.2752    2.4805   -0.5810 H   0  0  0  0  0  0  0  0  0  0  0  0
    0.2916    2.7841   -1.3028 H   0  0  0  0  0  0  0  0  0  0  0  0
   -3.6377   -1.6363   -0.0786 H   0  0  0  0  0  0  0  0  0  0  0  0
   -2.1369   -2.5315   -0.3170 H   0  0  0  0  0  0  0  0  0  0  0  0
   -2.5307   -1.8253    1.2676 H   0  0  0  0  0  0  0  0  0  0  0  0
   -2.7382    0.6758    1.2307 H   0  0  0  0  0  0  0  0  0  0  0  0
  1  9  1  0  0  0  0
  1 32  1  0  0  0  0
  2  3  1  0  0  0  0
  2  5  1  0  0  0  0
  2 10  1  0  0  0  0
  2 11  1  0  0  0  0
  3  6  1  0  0  0  0
  3  7  1  0  0  0  0
  3 13  1  0  0  0  0
  4  5  1  0  0  0  0
  4  6  1  0  0  0  0
  4  8  1  0  0  0  0
  4 14  1  0  0  0  0
  5  9  1  0  0  0  0
  5 15  1  0  0  0  0
  6 16  1  0  0  0  0
  6 17  1  0  0  0  0
  7  8  1  0  0  0  0
  7 18  1  0  0  0  0
  7 19  1  0  0  0  0
  8 20  1  0  0  0  0
  8 21  1  0  0  0  0
  9 12  1  0  0  0  0
  9 22  1  0  0  0  0
 10 23  1  0  0  0  0
 10 24  1  0  0  0  0
 10 25  1  0  0  0  0
 11 26  1  0  0  0  0
 11 27  1  0  0  0  0
 11 28  1  0  0  0  0
 12 29  1  0  0  0  0
 12 30  1  0  0  0  0
 12 31  1  0  0  0  0
M  END
> <PUBCHEM_COMPOUND_CID>
106672

> <PUBCHEM_CONFORMER_RMSD>
0.6

> <PUBCHEM_CONFORMER_DIVERSEORDER>
2
4
5
6
1
3

> <PUBCHEM_MMFF94_PARTIAL_CHARGES>
3
1 -0.68
32 0.4
9 0.28

> <PUBCHEM_EFFECTIVE_ROTOR_COUNT>
2

> <PUBCHEM_PHARMACOPHORE_FEATURES>
4
1 1 acceptor
1 1 donor
3 2 10 11 hydrophobe
7 2 3 4 5 6 7 8 rings

> <PUBCHEM_HEAVY_ATOM_COUNT>
12

> <PUBCHEM_ATOM_DEF_STEREO_COUNT>
0

> <PUBCHEM_ATOM_UDEF_STEREO_COUNT>
4

> <PUBCHEM_BOND_DEF_STEREO_COUNT>
0

> <PUBCHEM_BOND_UDEF_STEREO_COUNT>
0

> <PUBCHEM_ISOTOPIC_ATOM_COUNT>
0

> <PUBCHEM_COMPONENT_COUNT>
1

> <PUBCHEM_CACTVS_TAUTO_COUNT>
1

> <PUBCHEM_CONFORMER_ID>
0001A0B000000002

> <PUBCHEM_MMFF94_ENERGY>
52.6109

> <PUBCHEM_FEATURE_SELFOVERLAP>
20.297

> <PUBCHEM_SHAPE_FINGERPRINT>
12423570 1 12049344068469904512
13024252 1 13050471060985818034
14128692 85 18187369800651206014
16945 1 18116141191146303118
18185500 45 18335145254198229027
20653091 64 18264777725548836643
21040471 1 17402616740715853245
241688 4 18334009518984986329
2748010 2 18337387261491520471
29004967 10 17775007877248230878
5084963 1 18051139390799006139
528886 8 18187085074199389069

> <PUBCHEM_SHAPE_MULTIPOLES>
241.09
3.08
2.05
1.12
1.67
0.53
0.1
-1.03
-0.36
0.12
-0.17
-0.36
0.22
0.09

> <PUBCHEM_SHAPE_SELFOVERLAP>
501.085

> <PUBCHEM_SHAPE_VOLUME>
144.8

> <PUBCHEM_COORDINATE_TYPE>
2
5
10

$$$$
