106673
  -OEChem-11232108563D

 45 47  0     1  0  0  0  0  0999 V2000
   -5.1219   -0.4672    0.8312 O   0  0  0  0  0  0  0  0  0  0  0  0
    1.2535   -0.5539   -1.1366 C   0  0  2  0  0  0  0  0  0  0  0  0
    2.4358    1.1735   -0.3672 C   0  0  1  0  0  0  0  0  0  0  0  0
    2.6081    0.1260    0.7817 C   0  0  0  0  0  0  0  0  0  0  0  0
    0.1871    0.5610   -1.0052 C   0  0  2  0  0  0  0  0  0  0  0  0
    1.7366   -1.0661    0.2508 C   0  0  2  0  0  0  0  0  0  0  0  0
    2.4475    0.2790   -1.6140 C   0  0  0  0  0  0  0  0  0  0  0  0
    0.9998    1.7387   -0.4340 C   0  0  0  0  0  0  0  0  0  0  0  0
   -1.0645    0.2144   -0.2010 C   0  0  0  0  0  0  0  0  0  0  0  0
    4.1072   -0.1966    0.9642 C   0  0  0  0  0  0  0  0  0  0  0  0
    2.0978    0.6205    2.1459 C   0  0  0  0  0  0  0  0  0  0  0  0
    2.4472   -2.4139    0.1233 C   0  0  0  0  0  0  0  0  0  0  0  0
   -2.0180    1.4157   -0.1378 C   0  0  0  0  0  0  0  0  0  0  0  0
   -1.7679   -1.0134   -0.7961 C   0  0  0  0  0  0  0  0  0  0  0  0
   -3.3010    1.0759    0.6148 C   0  0  0  0  0  0  0  0  0  0  0  0
   -3.0518   -1.3464   -0.0419 C   0  0  0  0  0  0  0  0  0  0  0  0
   -3.9955   -0.1473    0.0219 C   0  0  0  0  0  0  0  0  0  0  0  0
    0.9623   -1.3468   -1.8303 H   0  0  0  0  0  0  0  0  0  0  0  0
    3.1975    1.9577   -0.3643 H   0  0  0  0  0  0  0  0  0  0  0  0
   -0.1312    0.8394   -2.0214 H   0  0  0  0  0  0  0  0  0  0  0  0
    0.8851   -1.2457    0.9135 H   0  0  0  0  0  0  0  0  0  0  0  0
    2.2482    0.8309   -2.5397 H   0  0  0  0  0  0  0  0  0  0  0  0
    3.3629   -0.3021   -1.7480 H   0  0  0  0  0  0  0  0  0  0  0  0
    0.6521    2.1141    0.5297 H   0  0  0  0  0  0  0  0  0  0  0  0
    0.9644    2.5804   -1.1372 H   0  0  0  0  0  0  0  0  0  0  0  0
   -0.7932   -0.0190    0.8345 H   0  0  0  0  0  0  0  0  0  0  0  0
    4.6567    0.6991    1.2777 H   0  0  0  0  0  0  0  0  0  0  0  0
    4.5826   -0.5546    0.0471 H   0  0  0  0  0  0  0  0  0  0  0  0
    4.2599   -0.9577    1.7373 H   0  0  0  0  0  0  0  0  0  0  0  0
    1.0147    0.7678    2.1665 H   0  0  0  0  0  0  0  0  0  0  0  0
    2.5714    1.5694    2.4208 H   0  0  0  0  0  0  0  0  0  0  0  0
    2.3252   -0.1089    2.9321 H   0  0  0  0  0  0  0  0  0  0  0  0
    1.7488   -3.1725   -0.2475 H   0  0  0  0  0  0  0  0  0  0  0  0
    3.2893   -2.3817   -0.5740 H   0  0  0  0  0  0  0  0  0  0  0  0
    2.8133   -2.7550    1.0968 H   0  0  0  0  0  0  0  0  0  0  0  0
   -2.2746    1.7422   -1.1539 H   0  0  0  0  0  0  0  0  0  0  0  0
   -1.5471    2.2705    0.3585 H   0  0  0  0  0  0  0  0  0  0  0  0
   -1.1113   -1.8897   -0.7609 H   0  0  0  0  0  0  0  0  0  0  0  0
   -2.0060   -0.8340   -1.8523 H   0  0  0  0  0  0  0  0  0  0  0  0
   -3.0762    0.8979    1.6746 H   0  0  0  0  0  0  0  0  0  0  0  0
   -3.9847    1.9332    0.5978 H   0  0  0  0  0  0  0  0  0  0  0  0
   -3.5588   -2.1924   -0.5214 H   0  0  0  0  0  0  0  0  0  0  0  0
   -2.8114   -1.6830    0.9750 H   0  0  0  0  0  0  0  0  0  0  0  0
   -4.3630    0.0927   -0.9829 H   0  0  0  0  0  0  0  0  0  0  0  0
   -5.5537   -1.2448    0.4380 H   0  0  0  0  0  0  0  0  0  0  0  0
  1 17  1  0  0  0  0
  1 45  1  0  0  0  0
  2  5  1  0  0  0  0
  2  6  1  0  0  0  0
  2  7  1  0  0  0  0
  2 18  1  0  0  0  0
  3  4  1  0  0  0  0
  3  7  1  0  0  0  0
  3  8  1  0  0  0  0
  3 19  1  0  0  0  0
  4  6  1  0  0  0  0
  4 10  1  0  0  0  0
  4 11  1  0  0  0  0
  5  8  1  0  0  0  0
  5  9  1  0  0  0  0
  5 20  1  0  0  0  0
  6 12  1  0  0  0  0
  6 21  1  0  0  0  0
  7 22  1  0  0  0  0
  7 23  1  0  0  0  0
  8 24  1  0  0  0  0
  8 25  1  0  0  0  0
  9 13  1  0  0  0  0
  9 14  1  0  0  0  0
  9 26  1  0  0  0  0
 10 27  1  0  0  0  0
 10 28  1  0  0  0  0
 10 29  1  0  0  0  0
 11 30  1  0  0  0  0
 11 31  1  0  0  0  0
 11 32  1  0  0  0  0
 12 33  1  0  0  0  0
 12 34  1  0  0  0  0
 12 35  1  0  0  0  0
 13 15  1  0  0  0  0
 13 36  1  0  0  0  0
 13 37  1  0  0  0  0
 14 16  1  0  0  0  0
 14 38  1  0  0  0  0
 14 39  1  0  0  0  0
 15 17  1  0  0  0  0
 15 40  1  0  0  0  0
 15 41  1  0  0  0  0
 16 17  1  0  0  0  0
 16 42  1  0  0  0  0
 16 43  1  0  0  0  0
 17 44  1  0  0  0  0
M  END
> <PUBCHEM_COMPOUND_CID>
106673

> <PUBCHEM_CONFORMER_RMSD>
0.6

> <PUBCHEM_CONFORMER_DIVERSEORDER>
1
15
17
8
18
23
20
7
16
5
9
14
22
10
4
6
13
11
12
2
21
3
19

> <PUBCHEM_MMFF94_PARTIAL_CHARGES>
3
1 -0.68
17 0.28
45 0.4

> <PUBCHEM_EFFECTIVE_ROTOR_COUNT>
3.2

> <PUBCHEM_PHARMACOPHORE_FEATURES>
5
1 1 acceptor
1 1 donor
3 4 10 11 hydrophobe
6 9 13 14 15 16 17 rings
7 2 3 4 5 6 7 8 rings

> <PUBCHEM_HEAVY_ATOM_COUNT>
17

> <PUBCHEM_ATOM_DEF_STEREO_COUNT>
0

> <PUBCHEM_ATOM_UDEF_STEREO_COUNT>
4

> <PUBCHEM_BOND_DEF_STEREO_COUNT>
0

> <PUBCHEM_BOND_UDEF_STEREO_COUNT>
0

> <PUBCHEM_ISOTOPIC_ATOM_COUNT>
0

> <PUBCHEM_COMPONENT_COUNT>
1

> <PUBCHEM_CACTVS_TAUTO_COUNT>
1

> <PUBCHEM_CONFORMER_ID>
0001A0B100000001

> <PUBCHEM_MMFF94_ENERGY>
62.0015

> <PUBCHEM_FEATURE_SELFOVERLAP>
25.371

> <PUBCHEM_SHAPE_FINGERPRINT>
10366900 7 18059568135294754707
10799339 124 18411981330329027067
11132069 177 18060140955541945133
11578080 2 17532628287206181269
11715629 250 10735870647604315267
12251169 10 18413103970097151229
12382932 28 18341323414324323444
12507560 40 18201152148671503136
12553582 1 18334860549706584637
12616999 72 17968111835917127023
12633257 1 17774703329696943042
12670546 177 10881409724686474139
12932764 1 17917990577179992517
13134695 92 13254521916418654098
13296908 3 18041558036079165071
13581323 91 18408601448538311413
13705890 14 13623525745198680720
14144814 61 18335707143642771069
14178342 30 18340758355674231339
14252887 29 18040153998395789274
14289901 80 18412547626162192321
15375462 189 17821719533764389936
15775835 57 17917988403694613754
16945 1 18410284843747866292
17804303 29 18127134069503762319
1813 80 17458908107586365430
18186145 218 14620518896011124197
19049666 15 17487627324916801157
19050596 39 18411138077956628267
19862831 5 8934999291327602825
200 152 16298382470312748073
20361792 2 16805319981183742271
20442098 301 18413108385555828591
20559304 39 18408046212224873565
20645477 70 16805321106613145891
20871998 22 18115866309092208334
21501925 9 18335136488338614165
21503847 285 15913341194593799705
22445834 79 18408603643414357703
2255824 54 17970076740574179868
22646028 28 17966969426514473635
231179 274 15195565714846888016
23557571 272 17274818125335334487
23559900 14 17988376879162902853
2748010 2 18121488068820904998
3286 77 15357691994196683447
4175511 335 14634864219881390178
474 4 17388836458522507516
5262128 65 11458990797607881802
5374978 207 18409452501151633345
7364860 26 18411141333525988702

> <PUBCHEM_SHAPE_MULTIPOLES>
343.98
7.48
1.73
1.39
7.05
0.47
0.24
1.07
2.45
-0.4
-0.04
-1.04
-0.21
-0.14

> <PUBCHEM_SHAPE_SELFOVERLAP>
719.608

> <PUBCHEM_SHAPE_VOLUME>
201.1

> <PUBCHEM_COORDINATE_TYPE>
2
5
10

$$$$
