106684
  -OEChem-11232108513D

 39 39  0     1  0  0  0  0  0999 V2000
    2.1224    2.2144    0.4246 O   0  0  0  0  0  0  0  0  0  0  0  0
    3.1304    0.1102   -0.1971 C   0  0  1  0  0  0  0  0  0  0  0  0
    2.4725   -0.7767   -1.2657 C   0  0  0  0  0  0  0  0  0  0  0  0
    0.9463   -0.8439   -1.1253 C   0  0  0  0  0  0  0  0  0  0  0  0
    2.7255   -0.3526    1.2171 C   0  0  0  0  0  0  0  0  0  0  0  0
    0.4691   -0.9725    0.2978 C   0  0  0  0  0  0  0  0  0  0  0  0
   -0.9728   -1.3448    0.4796 C   0  0  0  0  0  0  0  0  0  0  0  0
    1.2848   -0.7609    1.3442 C   0  0  0  0  0  0  0  0  0  0  0  0
    4.6578    0.0710   -0.3414 C   0  0  0  0  0  0  0  0  0  0  0  0
   -1.9034   -0.2981   -0.1281 C   0  0  0  0  0  0  0  0  0  0  0  0
   -3.3709   -0.6757    0.0988 C   0  0  0  0  0  0  0  0  0  0  0  0
    2.7053    1.5428   -0.4202 C   0  0  0  0  0  0  0  0  0  0  0  0
   -4.3643    0.3766   -0.4281 C   0  0  0  0  0  0  0  0  0  0  0  0
   -4.0817    1.7306    0.2275 C   0  0  0  0  0  0  0  0  0  0  0  0
   -5.8209   -0.0203   -0.1836 C   0  0  0  0  0  0  0  0  0  0  0  0
    2.8752   -1.7960   -1.1863 H   0  0  0  0  0  0  0  0  0  0  0  0
    2.7198   -0.4245   -2.2754 H   0  0  0  0  0  0  0  0  0  0  0  0
    0.5842   -1.6922   -1.7188 H   0  0  0  0  0  0  0  0  0  0  0  0
    0.5156    0.0630   -1.5665 H   0  0  0  0  0  0  0  0  0  0  0  0
    2.9382    0.4284    1.9578 H   0  0  0  0  0  0  0  0  0  0  0  0
    3.3292   -1.2216    1.5106 H   0  0  0  0  0  0  0  0  0  0  0  0
   -1.1516   -2.3208    0.0115 H   0  0  0  0  0  0  0  0  0  0  0  0
   -1.2090   -1.4667    1.5444 H   0  0  0  0  0  0  0  0  0  0  0  0
    0.9068   -0.8801    2.3563 H   0  0  0  0  0  0  0  0  0  0  0  0
    5.0447   -0.9451   -0.2072 H   0  0  0  0  0  0  0  0  0  0  0  0
    4.9739    0.4210   -1.3311 H   0  0  0  0  0  0  0  0  0  0  0  0
    5.1410    0.7170    0.4010 H   0  0  0  0  0  0  0  0  0  0  0  0
   -1.7330   -0.1968   -1.2060 H   0  0  0  0  0  0  0  0  0  0  0  0
   -1.6741    0.6683    0.3329 H   0  0  0  0  0  0  0  0  0  0  0  0
   -3.5752   -1.6356   -0.3923 H   0  0  0  0  0  0  0  0  0  0  0  0
   -3.5443   -0.8310    1.1717 H   0  0  0  0  0  0  0  0  0  0  0  0
    2.9482    1.9732   -1.4078 H   0  0  0  0  0  0  0  0  0  0  0  0
   -4.2226    0.4827   -1.5111 H   0  0  0  0  0  0  0  0  0  0  0  0
   -4.0429    1.6491    1.3191 H   0  0  0  0  0  0  0  0  0  0  0  0
   -3.1413    2.1647   -0.1244 H   0  0  0  0  0  0  0  0  0  0  0  0
   -4.8674    2.4519   -0.0246 H   0  0  0  0  0  0  0  0  0  0  0  0
   -6.0314   -0.1155    0.8870 H   0  0  0  0  0  0  0  0  0  0  0  0
   -6.0428   -0.9816   -0.6588 H   0  0  0  0  0  0  0  0  0  0  0  0
   -6.5056    0.7257   -0.6006 H   0  0  0  0  0  0  0  0  0  0  0  0
  1 12  2  0  0  0  0
  2  3  1  0  0  0  0
  2  5  1  0  0  0  0
  2  9  1  0  0  0  0
  2 12  1  0  0  0  0
  3  4  1  0  0  0  0
  3 16  1  0  0  0  0
  3 17  1  0  0  0  0
  4  6  1  0  0  0  0
  4 18  1  0  0  0  0
  4 19  1  0  0  0  0
  5  8  1  0  0  0  0
  5 20  1  0  0  0  0
  5 21  1  0  0  0  0
  6  7  1  0  0  0  0
  6  8  2  0  0  0  0
  7 10  1  0  0  0  0
  7 22  1  0  0  0  0
  7 23  1  0  0  0  0
  8 24  1  0  0  0  0
  9 25  1  0  0  0  0
  9 26  1  0  0  0  0
  9 27  1  0  0  0  0
 10 11  1  0  0  0  0
 10 28  1  0  0  0  0
 10 29  1  0  0  0  0
 11 13  1  0  0  0  0
 11 30  1  0  0  0  0
 11 31  1  0  0  0  0
 12 32  1  0  0  0  0
 13 14  1  0  0  0  0
 13 15  1  0  0  0  0
 13 33  1  0  0  0  0
 14 34  1  0  0  0  0
 14 35  1  0  0  0  0
 14 36  1  0  0  0  0
 15 37  1  0  0  0  0
 15 38  1  0  0  0  0
 15 39  1  0  0  0  0
M  END
> <PUBCHEM_COMPOUND_CID>
106684

> <PUBCHEM_CONFORMER_RMSD>
0.6

> <PUBCHEM_CONFORMER_DIVERSEORDER>
1
38
18
13
3
22
23
14
33
12
19
6
36
8
37
30
24
5
9
29
34
25
21
32
15
2
17
39
7
26
31
27
35
4
41
11
43
42
40
28
16
10
20

> <PUBCHEM_MMFF94_PARTIAL_CHARGES>
10
1 -0.57
12 0.45
2 0.06
24 0.15
32 0.06
4 0.14
5 0.14
6 -0.28
7 0.14
8 -0.29

> <PUBCHEM_EFFECTIVE_ROTOR_COUNT>
5.8

> <PUBCHEM_PHARMACOPHORE_FEATURES>
4
1 1 acceptor
3 13 14 15 hydrophobe
4 7 10 11 13 hydrophobe
6 2 3 4 5 6 8 rings

> <PUBCHEM_HEAVY_ATOM_COUNT>
15

> <PUBCHEM_ATOM_DEF_STEREO_COUNT>
0

> <PUBCHEM_ATOM_UDEF_STEREO_COUNT>
1

> <PUBCHEM_BOND_DEF_STEREO_COUNT>
0

> <PUBCHEM_BOND_UDEF_STEREO_COUNT>
0

> <PUBCHEM_ISOTOPIC_ATOM_COUNT>
0

> <PUBCHEM_COMPONENT_COUNT>
1

> <PUBCHEM_CACTVS_TAUTO_COUNT>
1

> <PUBCHEM_CONFORMER_ID>
0001A0BC00000001

> <PUBCHEM_MMFF94_ENERGY>
18.533

> <PUBCHEM_FEATURE_SELFOVERLAP>
20.327

> <PUBCHEM_SHAPE_FINGERPRINT>
10354089 29 17094963238335535775
10366900 7 17603307042286124449
10498660 4 18339641114890923377
10646746 165 18334296482771509237
12251169 10 14345798261884195827
12596602 18 14129068023365103269
12616999 72 17203610380449389271
13533116 47 17604139338671809131
13705890 14 11600010946487758282
14115302 16 16702022019211276358
14252887 29 13912320162220277762
15048467 5 17458632254911398820
15375462 189 11602814744151518072
15477762 27 12031794673343037642
15775835 57 17967252005076246130
17802600 8 18408037403505652541
18186145 218 18260824908396113655
18915474 69 12031494506589487897
200 152 14046025186883803339
20233049 118 18334014982262631436
20432913 95 9151175372324455925
20645477 56 18335706044479530191
20645477 70 16630253510663666742
20671657 53 14549022069888117531
212847 35 18040434386661358324
21503847 285 18261112993322419524
21524375 3 18187083940644923915
21652331 79 18333729126720095701
22289505 5 18271524195726822108
22485316 2 9079114458229406547
22646028 28 11167941359863248807
22854114 59 16732702740481393495
231179 274 18334574637659385224
23402539 116 18342451560525507398
23402655 69 17131835326671689459
23419403 2 13863602374316031250
23557571 272 18265342874874153699
23559900 14 18272937098175594446
26918003 58 12973607733640500143
276578 36 17167863071423900002
2838139 119 18198056096339126100
2871803 45 11240009944364083516
3060560 45 18131635577919838374
351380 180 18410854365222828781
4047638 21 18408605872338886426
42 15 8430315736449307071
474 4 17822577217200815173
5281201 14 17988651752954220813
5939293 188 18339074999035077416
6333272 397 18409166623691019459
76465 3 13181923362918544748

> <PUBCHEM_SHAPE_MULTIPOLES>
302.82
10.39
1.58
1.1
12.35
0.85
-0.03
2.81
1.06
-0.16
-0.17
-0.78
-0.24
-0.03

> <PUBCHEM_SHAPE_SELFOVERLAP>
593.118

> <PUBCHEM_SHAPE_VOLUME>
181.4

> <PUBCHEM_COORDINATE_TYPE>
2
5
10

$$$$
