106697
  -OEChem-11232109173D

 23 23  0     1  0  0  0  0  0999 V2000
    2.8326    0.0422    1.0506 N   0  0  0  0  0  0  0  0  0  0  0  0
   -0.7097   -1.3057    0.3538 C   0  0  1  0  0  0  0  0  0  0  0  0
    0.2304   -1.2854   -0.8673 C   0  0  0  0  0  0  0  0  0  0  0  0
    1.0923   -0.0197   -0.9290 C   0  0  1  0  0  0  0  0  0  0  0  0
    0.2076    1.2381   -0.9282 C   0  0  0  0  0  0  0  0  0  0  0  0
   -0.9527    1.1819    0.0374 C   0  0  0  0  0  0  0  0  0  0  0  0
   -1.3470    0.0350    0.6175 C   0  0  0  0  0  0  0  0  0  0  0  0
   -1.7768   -2.3870    0.1728 C   0  0  0  0  0  0  0  0  0  0  0  0
   -1.6433    2.4856    0.3128 C   0  0  0  0  0  0  0  0  0  0  0  0
    2.0667    0.0150    0.1795 C   0  0  0  0  0  0  0  0  0  0  0  0
   -0.1241   -1.5661    1.2451 H   0  0  0  0  0  0  0  0  0  0  0  0
   -0.3635   -1.3434   -1.7902 H   0  0  0  0  0  0  0  0  0  0  0  0
    0.8652   -2.1810   -0.8517 H   0  0  0  0  0  0  0  0  0  0  0  0
    1.6634   -0.0341   -1.8664 H   0  0  0  0  0  0  0  0  0  0  0  0
   -0.2080    1.3789   -1.9347 H   0  0  0  0  0  0  0  0  0  0  0  0
    0.8226    2.1217   -0.7133 H   0  0  0  0  0  0  0  0  0  0  0  0
   -2.1680    0.0549    1.3308 H   0  0  0  0  0  0  0  0  0  0  0  0
   -2.4134   -2.4638    1.0614 H   0  0  0  0  0  0  0  0  0  0  0  0
   -2.4239   -2.1730   -0.6854 H   0  0  0  0  0  0  0  0  0  0  0  0
   -1.3126   -3.3659    0.0113 H   0  0  0  0  0  0  0  0  0  0  0  0
   -2.4848    2.3702    1.0040 H   0  0  0  0  0  0  0  0  0  0  0  0
   -2.0326    2.9115   -0.6175 H   0  0  0  0  0  0  0  0  0  0  0  0
   -0.9427    3.2003    0.7567 H   0  0  0  0  0  0  0  0  0  0  0  0
  1 10  3  0  0  0  0
  2  3  1  0  0  0  0
  2  7  1  0  0  0  0
  2  8  1  0  0  0  0
  2 11  1  0  0  0  0
  3  4  1  0  0  0  0
  3 12  1  0  0  0  0
  3 13  1  0  0  0  0
  4  5  1  0  0  0  0
  4 10  1  0  0  0  0
  4 14  1  0  0  0  0
  5  6  1  0  0  0  0
  5 15  1  0  0  0  0
  5 16  1  0  0  0  0
  6  7  2  0  0  0  0
  6  9  1  0  0  0  0
  7 17  1  0  0  0  0
  8 18  1  0  0  0  0
  8 19  1  0  0  0  0
  8 20  1  0  0  0  0
  9 21  1  0  0  0  0
  9 22  1  0  0  0  0
  9 23  1  0  0  0  0
M  END
> <PUBCHEM_COMPOUND_CID>
106697

> <PUBCHEM_CONFORMER_RMSD>
0.4

> <PUBCHEM_CONFORMER_DIVERSEORDER>
2
3
1
4
5

> <PUBCHEM_MMFF94_PARTIAL_CHARGES>
9
1 -0.56
10 0.36
17 0.15
2 0.14
4 0.2
5 0.14
6 -0.28
7 -0.29
9 0.14

> <PUBCHEM_EFFECTIVE_ROTOR_COUNT>
0.8

> <PUBCHEM_PHARMACOPHORE_FEATURES>
2
1 1 acceptor
6 2 3 4 5 6 7 rings

> <PUBCHEM_HEAVY_ATOM_COUNT>
10

> <PUBCHEM_ATOM_DEF_STEREO_COUNT>
0

> <PUBCHEM_ATOM_UDEF_STEREO_COUNT>
2

> <PUBCHEM_BOND_DEF_STEREO_COUNT>
0

> <PUBCHEM_BOND_UDEF_STEREO_COUNT>
0

> <PUBCHEM_ISOTOPIC_ATOM_COUNT>
0

> <PUBCHEM_COMPONENT_COUNT>
1

> <PUBCHEM_CACTVS_TAUTO_COUNT>
1

> <PUBCHEM_CONFORMER_ID>
0001A0C900000002

> <PUBCHEM_MMFF94_ENERGY>
6.4987

> <PUBCHEM_FEATURE_SELFOVERLAP>
10.148

> <PUBCHEM_SHAPE_FINGERPRINT>
12423570 1 13252288678957652596
13024252 1 13624361300942166724
137420 1 15550548390924017118
16945 1 18410862057219034007
18185500 45 17761788655105942830
20653085 51 16415182452502378312
20653091 64 17330571241511877723
20871998 184 18271247217665142902
21040471 1 18121237397270578045
21930827 45 18269572549839455996
23211744 41 17986389979836369701
23419403 2 17545274981622641581
23552423 10 16898216937199974815
2748010 2 17976279944975881997
29004967 10 13046529539312013052
5084963 1 17983040884676933629
54338 74 18261104235614882562

> <PUBCHEM_SHAPE_MULTIPOLES>
200.81
2.73
2.47
1.01
1.65
0.03
-0.06
0.06
0.97
-2.16
0.02
0.39
0.02
-0.01

> <PUBCHEM_SHAPE_SELFOVERLAP>
396.743

> <PUBCHEM_SHAPE_VOLUME>
117.4

> <PUBCHEM_COORDINATE_TYPE>
2
5
10

$$$$
