106729
  -OEChem-11232109073D

 31 30  0     0  0  0  0  0  0999 V2000
   -0.8804    0.5154   -0.0906 O   0  0  0  0  0  0  0  0  0  0  0  0
    2.5867   -0.2758    0.2321 O   0  0  0  0  0  0  0  0  0  0  0  0
    1.5225    1.7009   -0.3053 O   0  0  0  0  0  0  0  0  0  0  0  0
   -4.6401    0.0639   -0.1078 C   0  0  0  0  0  0  0  0  0  0  0  0
   -3.2610    0.7306   -0.2363 C   0  0  0  0  0  0  0  0  0  0  0  0
   -2.0956   -0.2123    0.0380 C   0  0  0  0  0  0  0  0  0  0  0  0
   -4.7399   -1.1154   -1.0782 C   0  0  0  0  0  0  0  0  0  0  0  0
   -4.9258   -0.4137    1.3167 C   0  0  0  0  0  0  0  0  0  0  0  0
    0.2501   -0.3143    0.1387 C   0  0  0  0  0  0  0  0  0  0  0  0
    1.4992    0.5133   -0.0118 C   0  0  0  0  0  0  0  0  0  0  0  0
    3.8566    0.3759    0.1268 C   0  0  0  0  0  0  0  0  0  0  0  0
    4.9313   -0.6173    0.4208 C   0  0  0  0  0  0  0  0  0  0  0  0
    5.8964   -0.9514   -0.4430 C   0  0  0  0  0  0  0  0  0  0  0  0
   -5.3993    0.8070   -0.3815 H   0  0  0  0  0  0  0  0  0  0  0  0
   -3.2003    1.5881    0.4464 H   0  0  0  0  0  0  0  0  0  0  0  0
   -3.1476    1.1546   -1.2427 H   0  0  0  0  0  0  0  0  0  0  0  0
   -2.1558   -0.6211    1.0517 H   0  0  0  0  0  0  0  0  0  0  0  0
   -2.0827   -1.0380   -0.6805 H   0  0  0  0  0  0  0  0  0  0  0  0
   -5.7722   -1.4807   -1.1186 H   0  0  0  0  0  0  0  0  0  0  0  0
   -4.1132   -1.9606   -0.7765 H   0  0  0  0  0  0  0  0  0  0  0  0
   -4.4574   -0.8169   -2.0932 H   0  0  0  0  0  0  0  0  0  0  0  0
   -4.2679   -1.2343    1.6192 H   0  0  0  0  0  0  0  0  0  0  0  0
   -5.9571   -0.7745    1.3969 H   0  0  0  0  0  0  0  0  0  0  0  0
   -4.8034    0.4057    2.0327 H   0  0  0  0  0  0  0  0  0  0  0  0
    0.2136   -0.7145    1.1573 H   0  0  0  0  0  0  0  0  0  0  0  0
    0.2732   -1.1223   -0.6000 H   0  0  0  0  0  0  0  0  0  0  0  0
    3.9664    0.7970   -0.8795 H   0  0  0  0  0  0  0  0  0  0  0  0
    3.9095    1.1879    0.8612 H   0  0  0  0  0  0  0  0  0  0  0  0
    4.9223   -1.0884    1.4001 H   0  0  0  0  0  0  0  0  0  0  0  0
    6.6512   -1.6800   -0.1681 H   0  0  0  0  0  0  0  0  0  0  0  0
    5.9517   -0.5094   -1.4316 H   0  0  0  0  0  0  0  0  0  0  0  0
  1  6  1  0  0  0  0
  1  9  1  0  0  0  0
  2 10  1  0  0  0  0
  2 11  1  0  0  0  0
  3 10  2  0  0  0  0
  4  5  1  0  0  0  0
  4  7  1  0  0  0  0
  4  8  1  0  0  0  0
  4 14  1  0  0  0  0
  5  6  1  0  0  0  0
  5 15  1  0  0  0  0
  5 16  1  0  0  0  0
  6 17  1  0  0  0  0
  6 18  1  0  0  0  0
  7 19  1  0  0  0  0
  7 20  1  0  0  0  0
  7 21  1  0  0  0  0
  8 22  1  0  0  0  0
  8 23  1  0  0  0  0
  8 24  1  0  0  0  0
  9 10  1  0  0  0  0
  9 25  1  0  0  0  0
  9 26  1  0  0  0  0
 11 12  1  0  0  0  0
 11 27  1  0  0  0  0
 11 28  1  0  0  0  0
 12 13  2  0  0  0  0
 12 29  1  0  0  0  0
 13 30  1  0  0  0  0
 13 31  1  0  0  0  0
M  END
> <PUBCHEM_COMPOUND_CID>
106729

> <PUBCHEM_CONFORMER_RMSD>
0.8

> <PUBCHEM_CONFORMER_DIVERSEORDER>
1
68
61
114
44
50
41
40
34
63
48
84
49
60
111
7
4
94
88
38
10
117
73
46
121
87
115
31
25
108
6
20
69
51
102
97
28
18
2
13
21
91
96
105
33
118
58
66
71
109
15
122
104
45
23
55
76
106
12
83
112
110
9
14
80
64
120
16
119
29
75
86
53
8
27
79
70
99
90
92
101
89
78
100
65
35
5
67
57
74
3
54
93
11
47
39
32
81
24
103
82
107
52
62
37
116
56
77
42
30
43
85
17
22
59
19
113
72
26
36
95
98

> <PUBCHEM_MMFF94_PARTIAL_CHARGES>
12
1 -0.56
10 0.66
11 0.42
12 -0.29
13 -0.3
2 -0.43
29 0.15
3 -0.57
30 0.15
31 0.15
6 0.28
9 0.34

> <PUBCHEM_EFFECTIVE_ROTOR_COUNT>
8

> <PUBCHEM_PHARMACOPHORE_FEATURES>
4
1 1 acceptor
1 13 hydrophobe
1 3 acceptor
3 4 7 8 hydrophobe

> <PUBCHEM_HEAVY_ATOM_COUNT>
13

> <PUBCHEM_ATOM_DEF_STEREO_COUNT>
0

> <PUBCHEM_ATOM_UDEF_STEREO_COUNT>
0

> <PUBCHEM_BOND_DEF_STEREO_COUNT>
0

> <PUBCHEM_BOND_UDEF_STEREO_COUNT>
0

> <PUBCHEM_ISOTOPIC_ATOM_COUNT>
0

> <PUBCHEM_COMPONENT_COUNT>
1

> <PUBCHEM_CACTVS_TAUTO_COUNT>
1

> <PUBCHEM_CONFORMER_ID>
0001A0E900000001

> <PUBCHEM_MMFF94_ENERGY>
13.2388

> <PUBCHEM_FEATURE_SELFOVERLAP>
20.304

> <PUBCHEM_SHAPE_FINGERPRINT>
10680689 15 18408038511976155197
10912923 1 17703512198282431857
11287383 113 16225772938722943444
114248 4 15647055958383763202
117890 112 12103851141667095402
12091667 2 18409166597462130257
12714333 28 12396301461105920518
13690532 89 18411135835878120268
13862211 1 18408315575758033602
14123238 8 18334011692175010982
1420 363 18186243926281896354
14251718 22 15285644304184541658
14251731 8 17530966894949890483
14252887 29 18272937081485880654
14455015 7 18187089450802777435
15048467 5 8142089771007715751
15242439 84 17385718110886671405
15501527 16 10592044665588493651
17834072 33 18411138060808459772
17834076 25 8934999274216292463
20645477 70 14418402249325044640
20828058 44 17275384326462674975
21150785 3 13335026040153551187
220451 1 17989211447280441486
23402539 116 18060133232964133853
23402655 69 10953456332029299064
23590187 198 18131069337783954639
2767999 5 9511457806148529754
300161 21 9799698082310375209
42 15 17775286062285209092
42788 4 18272650143030954264
49783359 22 17632291293975524191
57483677 66 18343298146051159326
59345606 91 10231755578411977418

> <PUBCHEM_SHAPE_MULTIPOLES>
249.93
14.3
1.1
0.88
5.58
0.12
0.12
-4.84
0.31
0.18
-0.2
-0.97
-0.15
-0.22

> <PUBCHEM_SHAPE_SELFOVERLAP>
462.784

> <PUBCHEM_SHAPE_VOLUME>
157.7

> <PUBCHEM_COORDINATE_TYPE>
2
5
10

$$$$
