106742
  -OEChem-11232109113D

 26 26  0     1  0  0  0  0  0999 V2000
   -3.2097    0.4853    0.5411 O   0  0  0  0  0  0  0  0  0  0  0  0
   -1.0092   -0.3239    0.0823 C   0  0  1  0  0  0  0  0  0  0  0  0
   -0.1803   -1.3182   -0.7402 C   0  0  0  0  0  0  0  0  0  0  0  0
    1.3068   -1.2937   -0.3444 C   0  0  1  0  0  0  0  0  0  0  0  0
   -0.4660    1.1045   -0.0955 C   0  0  0  0  0  0  0  0  0  0  0  0
    1.0388    1.1934   -0.0377 C   0  0  0  0  0  0  0  0  0  0  0  0
    1.8237    0.1067   -0.1376 C   0  0  0  0  0  0  0  0  0  0  0  0
   -2.4862   -0.3910   -0.3025 C   0  0  0  0  0  0  0  0  0  0  0  0
    1.5705   -2.1334    0.9077 C   0  0  0  0  0  0  0  0  0  0  0  0
    1.6116    2.5704    0.1269 C   0  0  0  0  0  0  0  0  0  0  0  0
   -0.9265   -0.5815    1.1471 H   0  0  0  0  0  0  0  0  0  0  0  0
   -0.2677   -1.0619   -1.8053 H   0  0  0  0  0  0  0  0  0  0  0  0
   -0.5832   -2.3329   -0.6336 H   0  0  0  0  0  0  0  0  0  0  0  0
    1.8735   -1.7439   -1.1696 H   0  0  0  0  0  0  0  0  0  0  0  0
   -0.8920    1.7431    0.6886 H   0  0  0  0  0  0  0  0  0  0  0  0
   -0.7941    1.5179   -1.0581 H   0  0  0  0  0  0  0  0  0  0  0  0
    2.9041    0.2193   -0.0832 H   0  0  0  0  0  0  0  0  0  0  0  0
   -2.8763   -1.4048   -0.1656 H   0  0  0  0  0  0  0  0  0  0  0  0
   -2.6436   -0.0917   -1.3441 H   0  0  0  0  0  0  0  0  0  0  0  0
    2.6417   -2.1662    1.1373 H   0  0  0  0  0  0  0  0  0  0  0  0
    1.0549   -1.7314    1.7865 H   0  0  0  0  0  0  0  0  0  0  0  0
    1.2331   -3.1650    0.7607 H   0  0  0  0  0  0  0  0  0  0  0  0
    2.7066    2.5642    0.1391 H   0  0  0  0  0  0  0  0  0  0  0  0
    1.2704    3.0139    1.0679 H   0  0  0  0  0  0  0  0  0  0  0  0
    1.2914    3.2150   -0.6981 H   0  0  0  0  0  0  0  0  0  0  0  0
   -4.1450    0.4256    0.2822 H   0  0  0  0  0  0  0  0  0  0  0  0
  1  8  1  0  0  0  0
  1 26  1  0  0  0  0
  2  3  1  0  0  0  0
  2  5  1  0  0  0  0
  2  8  1  0  0  0  0
  2 11  1  0  0  0  0
  3  4  1  0  0  0  0
  3 12  1  0  0  0  0
  3 13  1  0  0  0  0
  4  7  1  0  0  0  0
  4  9  1  0  0  0  0
  4 14  1  0  0  0  0
  5  6  1  0  0  0  0
  5 15  1  0  0  0  0
  5 16  1  0  0  0  0
  6  7  2  0  0  0  0
  6 10  1  0  0  0  0
  7 17  1  0  0  0  0
  8 18  1  0  0  0  0
  8 19  1  0  0  0  0
  9 20  1  0  0  0  0
  9 21  1  0  0  0  0
  9 22  1  0  0  0  0
 10 23  1  0  0  0  0
 10 24  1  0  0  0  0
 10 25  1  0  0  0  0
M  END
> <PUBCHEM_COMPOUND_CID>
106742

> <PUBCHEM_CONFORMER_RMSD>
0.4

> <PUBCHEM_CONFORMER_DIVERSEORDER>
1
13
6
9
4
11
7
10
12
8
3
5
2

> <PUBCHEM_MMFF94_PARTIAL_CHARGES>
9
1 -0.68
10 0.14
17 0.15
26 0.4
4 0.14
5 0.14
6 -0.28
7 -0.29
8 0.28

> <PUBCHEM_EFFECTIVE_ROTOR_COUNT>
1.8

> <PUBCHEM_PHARMACOPHORE_FEATURES>
3
1 1 acceptor
1 1 donor
6 2 3 4 5 6 7 rings

> <PUBCHEM_HEAVY_ATOM_COUNT>
10

> <PUBCHEM_ATOM_DEF_STEREO_COUNT>
0

> <PUBCHEM_ATOM_UDEF_STEREO_COUNT>
2

> <PUBCHEM_BOND_DEF_STEREO_COUNT>
0

> <PUBCHEM_BOND_UDEF_STEREO_COUNT>
0

> <PUBCHEM_ISOTOPIC_ATOM_COUNT>
0

> <PUBCHEM_COMPONENT_COUNT>
1

> <PUBCHEM_CACTVS_TAUTO_COUNT>
1

> <PUBCHEM_CONFORMER_ID>
0001A0F600000001

> <PUBCHEM_MMFF94_ENERGY>
9.2871

> <PUBCHEM_FEATURE_SELFOVERLAP>
15.223

> <PUBCHEM_SHAPE_FINGERPRINT>
16945 1 18408595968043886750
18185500 45 18412259497996452838
20653091 64 18411985745344436891
20871998 184 17550371952504471318
21040471 1 17906735052666502340
21524375 3 18053379087294929844
23552333 60 18343308032743731785
23552423 10 18410572928900739319
241688 4 17907866106496949714
2748010 2 18052247406525351444
29004967 10 18260551095419538859
528862 383 18410004463903361211

> <PUBCHEM_SHAPE_MULTIPOLES>
199.93
3.28
2.42
0.8
2.91
0.35
-0.03
0.57
-0.43
-1.87
-0.33
-0.03
-0.25
-0.31

> <PUBCHEM_SHAPE_SELFOVERLAP>
389.834

> <PUBCHEM_SHAPE_VOLUME>
120.5

> <PUBCHEM_COORDINATE_TYPE>
2
5
10

$$$$
