106713
  -OEChem-11232108573D

 38 39  0     1  0  0  0  0  0999 V2000
    2.5558    1.4929    0.6564 O   0  0  0  0  0  0  0  0  0  0  0  0
    2.6615   -0.0800   -1.0322 O   0  0  0  0  0  0  0  0  0  0  0  0
   -1.4679    0.1683    0.2046 C   0  0  1  0  0  0  0  0  0  0  0  0
    0.5002   -1.5530   -0.0075 C   0  0  1  0  0  0  0  0  0  0  0  0
    0.9956   -0.2549    0.7037 C   0  0  2  0  0  0  0  0  0  0  0  0
   -0.1682    0.7674    0.8099 C   0  0  0  0  0  0  0  0  0  0  0  0
   -1.7984   -1.1203    1.0019 C   0  0  0  0  0  0  0  0  0  0  0  0
   -0.6413   -2.1376    0.8741 C   0  0  0  0  0  0  0  0  0  0  0  0
   -2.6201    1.1673    0.2603 C   0  0  0  0  0  0  0  0  0  0  0  0
   -1.1460   -0.2622   -1.2171 C   0  0  0  0  0  0  0  0  0  0  0  0
   -0.1431   -1.1485   -1.3264 C   0  0  0  0  0  0  0  0  0  0  0  0
    1.6083   -2.5896   -0.1969 C   0  0  0  0  0  0  0  0  0  0  0  0
    2.1617    0.3708   -0.0103 C   0  0  0  0  0  0  0  0  0  0  0  0
   -2.2644    2.4414   -0.5034 C   0  0  0  0  0  0  0  0  0  0  0  0
   -3.8983    0.5460   -0.2993 C   0  0  0  0  0  0  0  0  0  0  0  0
    3.6648    2.1918    0.0822 C   0  0  0  0  0  0  0  0  0  0  0  0
    1.3488   -0.5152    1.7112 H   0  0  0  0  0  0  0  0  0  0  0  0
   -0.3290    1.0211    1.8659 H   0  0  0  0  0  0  0  0  0  0  0  0
    0.1073    1.6987    0.3049 H   0  0  0  0  0  0  0  0  0  0  0  0
   -2.7054   -1.6151    0.6378 H   0  0  0  0  0  0  0  0  0  0  0  0
   -1.9700   -0.8879    2.0604 H   0  0  0  0  0  0  0  0  0  0  0  0
   -0.2638   -2.3922    1.8726 H   0  0  0  0  0  0  0  0  0  0  0  0
   -1.0266   -3.0705    0.4413 H   0  0  0  0  0  0  0  0  0  0  0  0
   -2.8149    1.4472    1.3042 H   0  0  0  0  0  0  0  0  0  0  0  0
   -1.6687    0.0932   -2.0954 H   0  0  0  0  0  0  0  0  0  0  0  0
    0.1849   -1.5405   -2.2807 H   0  0  0  0  0  0  0  0  0  0  0  0
    2.2989   -2.3565   -1.0114 H   0  0  0  0  0  0  0  0  0  0  0  0
    2.1913   -2.7145    0.7223 H   0  0  0  0  0  0  0  0  0  0  0  0
    1.1801   -3.5693   -0.4425 H   0  0  0  0  0  0  0  0  0  0  0  0
   -1.9649    2.2633   -1.5398 H   0  0  0  0  0  0  0  0  0  0  0  0
   -3.1353    3.1074   -0.5395 H   0  0  0  0  0  0  0  0  0  0  0  0
   -1.4771    3.0151   -0.0064 H   0  0  0  0  0  0  0  0  0  0  0  0
   -3.7899    0.1625   -1.3175 H   0  0  0  0  0  0  0  0  0  0  0  0
   -4.6938    1.3006   -0.3322 H   0  0  0  0  0  0  0  0  0  0  0  0
   -4.2804   -0.2570    0.3371 H   0  0  0  0  0  0  0  0  0  0  0  0
    3.4140    2.5361   -0.9257 H   0  0  0  0  0  0  0  0  0  0  0  0
    4.5491    1.5478    0.0624 H   0  0  0  0  0  0  0  0  0  0  0  0
    3.8784    3.0626    0.7075 H   0  0  0  0  0  0  0  0  0  0  0  0
  1 13  1  0  0  0  0
  1 16  1  0  0  0  0
  2 13  2  0  0  0  0
  3  6  1  0  0  0  0
  3  7  1  0  0  0  0
  3  9  1  0  0  0  0
  3 10  1  0  0  0  0
  4  5  1  0  0  0  0
  4  8  1  0  0  0  0
  4 11  1  0  0  0  0
  4 12  1  0  0  0  0
  5  6  1  0  0  0  0
  5 13  1  0  0  0  0
  5 17  1  0  0  0  0
  6 18  1  0  0  0  0
  6 19  1  0  0  0  0
  7  8  1  0  0  0  0
  7 20  1  0  0  0  0
  7 21  1  0  0  0  0
  8 22  1  0  0  0  0
  8 23  1  0  0  0  0
  9 14  1  0  0  0  0
  9 15  1  0  0  0  0
  9 24  1  0  0  0  0
 10 11  2  0  0  0  0
 10 25  1  0  0  0  0
 11 26  1  0  0  0  0
 12 27  1  0  0  0  0
 12 28  1  0  0  0  0
 12 29  1  0  0  0  0
 14 30  1  0  0  0  0
 14 31  1  0  0  0  0
 14 32  1  0  0  0  0
 15 33  1  0  0  0  0
 15 34  1  0  0  0  0
 15 35  1  0  0  0  0
 16 36  1  0  0  0  0
 16 37  1  0  0  0  0
 16 38  1  0  0  0  0
M  END
> <PUBCHEM_COMPOUND_CID>
106713

> <PUBCHEM_CONFORMER_RMSD>
0.6

> <PUBCHEM_CONFORMER_DIVERSEORDER>
2
5
1
4
6
3

> <PUBCHEM_MMFF94_PARTIAL_CHARGES>
11
1 -0.43
10 -0.29
11 -0.29
13 0.66
16 0.28
2 -0.57
25 0.15
26 0.15
3 0.14
4 0.14
5 0.06

> <PUBCHEM_EFFECTIVE_ROTOR_COUNT>
3.8

> <PUBCHEM_PHARMACOPHORE_FEATURES>
3
1 2 acceptor
3 9 14 15 hydrophobe
8 3 4 5 6 7 8 10 11 rings

> <PUBCHEM_HEAVY_ATOM_COUNT>
16

> <PUBCHEM_ATOM_DEF_STEREO_COUNT>
0

> <PUBCHEM_ATOM_UDEF_STEREO_COUNT>
3

> <PUBCHEM_BOND_DEF_STEREO_COUNT>
0

> <PUBCHEM_BOND_UDEF_STEREO_COUNT>
0

> <PUBCHEM_ISOTOPIC_ATOM_COUNT>
0

> <PUBCHEM_COMPONENT_COUNT>
1

> <PUBCHEM_CACTVS_TAUTO_COUNT>
1

> <PUBCHEM_CONFORMER_ID>
0001A0D900000002

> <PUBCHEM_MMFF94_ENERGY>
59.3025

> <PUBCHEM_FEATURE_SELFOVERLAP>
15.223

> <PUBCHEM_SHAPE_FINGERPRINT>
10608611 8 18336265626651005713
10863032 1 18408889529211841507
10948715 1 18409728456472837321
11680611 10 14997724037899355811
12173636 292 18193275423785924956
12423570 1 11298164385709829595
13024252 1 11892421695739056538
13132413 78 17545313082293172882
13380535 76 18409161121315661019
13464514 151 18051705347245638236
13571099 52 18260263032036738653
13764800 53 18261116334548389505
13839132 238 18187654544118861515
14142880 1 17898555738359767052
14817 1 14236971719145066678
15219456 202 18409457976834165163
15375462 6 18337671910818366973
15490181 7 18341336681716008982
15775835 57 18201718478717019037
16945 1 18270123383600672291
18186145 218 18200599094312487657
18981168 100 17679567961718326189
19837323 101 18338231699406832938
20510252 161 18194971956962555160
20645477 56 18198060494395966016
21296965 12 18271250520325999980
21501502 16 18339920429235145227
21524375 3 18413099572087660816
21947302 44 18340204081348441482
22892500 29 17611735718115221893
23227448 37 17907299106463942236
23402539 116 17981874556338022414
23419403 2 17194661493907766103
25 1 18340772550477490400
2748010 2 18268443493137029370
305870 269 18409160022320841842
3250762 1 18336839614449280115
3286 77 17897724254250441615
5084963 1 18054782889029203203
5706482 22 18338502162182264536
68250623 7 18270954661884116967
7364860 26 18268989787170457434
81228 2 17549820440138591170

> <PUBCHEM_SHAPE_MULTIPOLES>
317.53
4.88
2.62
1.11
0.18
0.05
0.16
-3.6
0.26
1.04
-0.1
-0.1
0.24
0.52

> <PUBCHEM_SHAPE_SELFOVERLAP>
666.178

> <PUBCHEM_SHAPE_VOLUME>
179

> <PUBCHEM_COORDINATE_TYPE>
2
5
10

$$$$
