106746
  -OEChem-11232109453D

 33 33  0     1  0  0  0  0  0999 V2000
   -2.1227   -0.3863   -0.2818 O   0  0  0  0  0  0  0  0  0  0  0  0
   -3.9045    0.7149    0.6929 O   0  0  0  0  0  0  0  0  0  0  0  0
    1.2425    1.2657    0.1942 C   0  0  1  0  0  0  0  0  0  0  0  0
    0.1897    0.2112   -0.2253 C   0  0  1  0  0  0  0  0  0  0  0  0
    3.0051   -0.5678    0.3612 C   0  0  1  0  0  0  0  0  0  0  0  0
    2.6578    0.8129   -0.2082 C   0  0  0  0  0  0  0  0  0  0  0  0
    0.5526   -1.1726    0.3387 C   0  0  0  0  0  0  0  0  0  0  0  0
    1.9602   -1.6040   -0.0614 C   0  0  0  0  0  0  0  0  0  0  0  0
   -1.2266    0.5846    0.2221 C   0  0  0  0  0  0  0  0  0  0  0  0
    0.9624    2.6460   -0.4074 C   0  0  0  0  0  0  0  0  0  0  0  0
    4.4017   -0.9991   -0.0829 C   0  0  0  0  0  0  0  0  0  0  0  0
   -3.4456   -0.2039    0.0277 C   0  0  0  0  0  0  0  0  0  0  0  0
   -4.2725   -1.3018   -0.5698 C   0  0  0  0  0  0  0  0  0  0  0  0
    1.2191    1.3690    1.2878 H   0  0  0  0  0  0  0  0  0  0  0  0
    0.1894    0.1271   -1.3215 H   0  0  0  0  0  0  0  0  0  0  0  0
    3.0058   -0.5008    1.4573 H   0  0  0  0  0  0  0  0  0  0  0  0
    3.3920    1.5465    0.1487 H   0  0  0  0  0  0  0  0  0  0  0  0
    2.7396    0.7933   -1.3033 H   0  0  0  0  0  0  0  0  0  0  0  0
   -0.1540   -1.9314   -0.0176 H   0  0  0  0  0  0  0  0  0  0  0  0
    0.4774   -1.1603    1.4338 H   0  0  0  0  0  0  0  0  0  0  0  0
    2.1858   -2.5724    0.4010 H   0  0  0  0  0  0  0  0  0  0  0  0
    1.9977   -1.7547   -1.1479 H   0  0  0  0  0  0  0  0  0  0  0  0
   -1.5156    1.5598   -0.1818 H   0  0  0  0  0  0  0  0  0  0  0  0
   -1.2883    0.6204    1.3165 H   0  0  0  0  0  0  0  0  0  0  0  0
    1.7777    3.3415   -0.1798 H   0  0  0  0  0  0  0  0  0  0  0  0
    0.8604    2.5913   -1.4964 H   0  0  0  0  0  0  0  0  0  0  0  0
    0.0482    3.0851    0.0024 H   0  0  0  0  0  0  0  0  0  0  0  0
    4.6629   -1.9714    0.3479 H   0  0  0  0  0  0  0  0  0  0  0  0
    4.4655   -1.0835   -1.1730 H   0  0  0  0  0  0  0  0  0  0  0  0
    5.1544   -0.2745    0.2452 H   0  0  0  0  0  0  0  0  0  0  0  0
   -3.9534   -2.2662   -0.1668 H   0  0  0  0  0  0  0  0  0  0  0  0
   -4.1749   -1.2878   -1.6582 H   0  0  0  0  0  0  0  0  0  0  0  0
   -5.3238   -1.1464   -0.3114 H   0  0  0  0  0  0  0  0  0  0  0  0
  1  9  1  0  0  0  0
  1 12  1  0  0  0  0
  2 12  2  0  0  0  0
  3  4  1  0  0  0  0
  3  6  1  0  0  0  0
  3 10  1  0  0  0  0
  3 14  1  0  0  0  0
  4  7  1  0  0  0  0
  4  9  1  0  0  0  0
  4 15  1  0  0  0  0
  5  6  1  0  0  0  0
  5  8  1  0  0  0  0
  5 11  1  0  0  0  0
  5 16  1  0  0  0  0
  6 17  1  0  0  0  0
  6 18  1  0  0  0  0
  7  8  1  0  0  0  0
  7 19  1  0  0  0  0
  7 20  1  0  0  0  0
  8 21  1  0  0  0  0
  8 22  1  0  0  0  0
  9 23  1  0  0  0  0
  9 24  1  0  0  0  0
 10 25  1  0  0  0  0
 10 26  1  0  0  0  0
 10 27  1  0  0  0  0
 11 28  1  0  0  0  0
 11 29  1  0  0  0  0
 11 30  1  0  0  0  0
 12 13  1  0  0  0  0
 13 31  1  0  0  0  0
 13 32  1  0  0  0  0
 13 33  1  0  0  0  0
M  END
> <PUBCHEM_COMPOUND_CID>
106746

> <PUBCHEM_CONFORMER_RMSD>
0.6

> <PUBCHEM_CONFORMER_DIVERSEORDER>
2
98
59
71
125
137
132
144
16
153
166
109
73
160
18
88
78
114
154
97
52
21
72
81
70
56
24
38
94
19
158
55
50
124
113
110
136
35
76
148
134
146
168
135
79
57
3
123
103
51
169
101
5
139
80
68
147
95
26
45
159
129
167
122
63
119
11
163
143
99
42
30
33
107
118
90
22
23
62
157
142
149
140
25
156
61
1
127
4
85
112
164
82
87
106
115
152
91
46
155
40
130
77
6
92
104
53
20
128
29
89
145
126
100
8
43
108
133
48
12
47
165
96
141
111
131
171
120
83
86
14
28
116
36
105
58
41
162
117
161
67
138
121
10
31
64
93
172
39
151
173
32
34
75
66
9
170
49
65
150
74
102
7
44
13
54
17
69
60
27
37
84
15

> <PUBCHEM_MMFF94_PARTIAL_CHARGES>
5
1 -0.43
12 0.66
13 0.06
2 -0.57
9 0.28

> <PUBCHEM_EFFECTIVE_ROTOR_COUNT>
4.2

> <PUBCHEM_PHARMACOPHORE_FEATURES>
2
1 2 acceptor
6 3 4 5 6 7 8 rings

> <PUBCHEM_HEAVY_ATOM_COUNT>
13

> <PUBCHEM_ATOM_DEF_STEREO_COUNT>
0

> <PUBCHEM_ATOM_UDEF_STEREO_COUNT>
3

> <PUBCHEM_BOND_DEF_STEREO_COUNT>
0

> <PUBCHEM_BOND_UDEF_STEREO_COUNT>
0

> <PUBCHEM_ISOTOPIC_ATOM_COUNT>
0

> <PUBCHEM_COMPONENT_COUNT>
1

> <PUBCHEM_CACTVS_TAUTO_COUNT>
1

> <PUBCHEM_CONFORMER_ID>
0001A0FA00000002

> <PUBCHEM_MMFF94_ENERGY>
17.8613

> <PUBCHEM_FEATURE_SELFOVERLAP>
10.148

> <PUBCHEM_SHAPE_FINGERPRINT>
10219947 1 18409731763771631146
11471102 20 18335979847868910900
11806522 49 18411979182613309326
12032990 46 18410856521417834494
12932764 1 17313090974015001835
13690532 89 18411135835820351338
13862211 1 18335978688929867666
14144814 61 18413107268937944147
14251717 144 18408881866895168431
14252887 29 18130512950799219262
14325111 11 18411419552864741193
14993402 34 18410859867165696670
15375462 189 18260546675866737987
15477762 27 18410854390723672094
15501101 241 18187082870844405717
15536298 74 18272368711046231584
15757776 16 18333727992547906322
18186145 218 17749384888777010651
193761 8 17832709346089945906
19422 9 18271810163597747495
200 152 18201146733429938647
20201158 50 18260831483680099866
20339313 130 18410296912653615848
20606313 2 18335700563504862700
20645477 70 18336258050560791399
20671657 1 18266182922805245876
20708731 107 18262240035627343836
20711985 327 18411422795248649196
20871998 22 18198348360019827270
21501925 9 18340760515825944883
221490 88 18190747637721224571
2255824 54 18337112387906118876
22959321 4 18338797939616504231
23402539 116 18340198601355573070
23402655 69 18409164381549260021
23532345 12 18131071537007579201
23598291 2 18200305645109121391
2748010 2 18122333589215655908
3071541 12 18265338493928474940
581208 293 18336823186230358624
7364860 26 18269272533494657864
8809292 202 18113905986991648691

> <PUBCHEM_SHAPE_MULTIPOLES>
255.8
7.65
1.98
0.71
5.16
1.01
0
-3.1
0.21
-0.9
0.22
0.14
0.01
-0.47

> <PUBCHEM_SHAPE_SELFOVERLAP>
496.192

> <PUBCHEM_SHAPE_VOLUME>
154.9

> <PUBCHEM_COORDINATE_TYPE>
2
5
10

$$$$
