106740
  -OEChem-11232109093D

 54 55  0     1  0  0  0  0  0999 V2000
   -3.8211   -3.2800    0.6318 O   0  0  0  0  0  0  0  0  0  0  0  0
    1.6210   -1.7808   -1.8846 O   0  0  0  0  0  0  0  0  0  0  0  0
    1.8419    0.4708   -2.3095 O   0  0  0  0  0  0  0  0  0  0  0  0
    1.9829    1.8204    0.0876 N   0  0  0  0  0  0  0  0  0  0  0  0
   -0.1099    3.0566    0.0718 C   0  0  1  0  0  0  0  0  0  0  0  0
   -0.7510    2.8196   -1.2947 C   0  0  0  0  0  0  0  0  0  0  0  0
   -1.8277    1.7291   -1.2637 C   0  0  0  0  0  0  0  0  0  0  0  0
   -2.7252    1.7943   -0.0551 C   0  0  0  0  0  0  0  0  0  0  0  0
   -3.9799    0.9744   -0.1190 C   0  0  0  0  0  0  0  0  0  0  0  0
   -1.1581    3.3462    1.1509 C   0  0  0  0  0  0  0  0  0  0  0  0
   -3.6806   -0.5102   -0.3386 C   0  0  0  0  0  0  0  0  0  0  0  0
   -2.4176    2.5387    1.0204 C   0  0  0  0  0  0  0  0  0  0  0  0
   -2.8491   -1.0823    0.8181 C   0  0  0  0  0  0  0  0  0  0  0  0
   -2.5693   -2.5956    0.7178 C   0  0  0  0  0  0  0  0  0  0  0  0
    0.7438    1.8802    0.4514 C   0  0  0  0  0  0  0  0  0  0  0  0
   -1.7341   -2.9561   -0.5126 C   0  0  0  0  0  0  0  0  0  0  0  0
   -1.8592   -3.0721    1.9894 C   0  0  0  0  0  0  0  0  0  0  0  0
    2.6862    0.6755    0.4989 C   0  0  0  0  0  0  0  0  0  0  0  0
    2.7200   -0.4648   -0.2999 C   0  0  0  0  0  0  0  0  0  0  0  0
    3.3522    0.6970    1.7220 C   0  0  0  0  0  0  0  0  0  0  0  0
    3.4242   -1.5906    0.1270 C   0  0  0  0  0  0  0  0  0  0  0  0
    4.0565   -0.4289    2.1487 C   0  0  0  0  0  0  0  0  0  0  0  0
    4.0925   -1.5726    1.3513 C   0  0  0  0  0  0  0  0  0  0  0  0
    2.0313   -0.5118   -1.5830 C   0  0  0  0  0  0  0  0  0  0  0  0
    0.9304   -1.9570   -3.1262 C   0  0  0  0  0  0  0  0  0  0  0  0
    0.5622    3.9217   -0.0055 H   0  0  0  0  0  0  0  0  0  0  0  0
   -1.2116    3.7580   -1.6317 H   0  0  0  0  0  0  0  0  0  0  0  0
    0.0058    2.5599   -2.0440 H   0  0  0  0  0  0  0  0  0  0  0  0
   -2.4264    1.8127   -2.1788 H   0  0  0  0  0  0  0  0  0  0  0  0
   -1.3327    0.7508   -1.2924 H   0  0  0  0  0  0  0  0  0  0  0  0
   -4.5782    1.0935    0.7930 H   0  0  0  0  0  0  0  0  0  0  0  0
   -4.6033    1.3408   -0.9440 H   0  0  0  0  0  0  0  0  0  0  0  0
   -1.4386    4.4059    1.1050 H   0  0  0  0  0  0  0  0  0  0  0  0
   -0.7306    3.1741    2.1464 H   0  0  0  0  0  0  0  0  0  0  0  0
   -3.1764   -0.6633   -1.2980 H   0  0  0  0  0  0  0  0  0  0  0  0
   -4.6404   -1.0357   -0.4037 H   0  0  0  0  0  0  0  0  0  0  0  0
   -3.0991    2.5713    1.8665 H   0  0  0  0  0  0  0  0  0  0  0  0
   -3.3993   -0.8890    1.7491 H   0  0  0  0  0  0  0  0  0  0  0  0
   -1.8900   -0.5574    0.8987 H   0  0  0  0  0  0  0  0  0  0  0  0
    0.2598    1.0560    1.0082 H   0  0  0  0  0  0  0  0  0  0  0  0
   -2.2610   -2.7297   -1.4452 H   0  0  0  0  0  0  0  0  0  0  0  0
   -0.7784   -2.4235   -0.5124 H   0  0  0  0  0  0  0  0  0  0  0  0
   -1.5288   -4.0326   -0.5382 H   0  0  0  0  0  0  0  0  0  0  0  0
   -0.8885   -2.5820    2.1173 H   0  0  0  0  0  0  0  0  0  0  0  0
   -2.4707   -2.8721    2.8767 H   0  0  0  0  0  0  0  0  0  0  0  0
   -1.7009   -4.1563    1.9634 H   0  0  0  0  0  0  0  0  0  0  0  0
   -4.1760   -3.1646   -0.2656 H   0  0  0  0  0  0  0  0  0  0  0  0
    3.3310    1.5836    2.3502 H   0  0  0  0  0  0  0  0  0  0  0  0
    3.4844   -2.4929   -0.4761 H   0  0  0  0  0  0  0  0  0  0  0  0
    4.5776   -0.4146    3.1015 H   0  0  0  0  0  0  0  0  0  0  0  0
    4.6437   -2.4480    1.6825 H   0  0  0  0  0  0  0  0  0  0  0  0
    1.5829   -1.6873   -3.9617 H   0  0  0  0  0  0  0  0  0  0  0  0
    0.0171   -1.3545   -3.1383 H   0  0  0  0  0  0  0  0  0  0  0  0
    0.6573   -3.0116   -3.2171 H   0  0  0  0  0  0  0  0  0  0  0  0
  1 14  1  0  0  0  0
  1 47  1  0  0  0  0
  2 24  1  0  0  0  0
  2 25  1  0  0  0  0
  3 24  2  0  0  0  0
  4 15  2  0  0  0  0
  4 18  1  0  0  0  0
  5  6  1  0  0  0  0
  5 10  1  0  0  0  0
  5 15  1  0  0  0  0
  5 26  1  0  0  0  0
  6  7  1  0  0  0  0
  6 27  1  0  0  0  0
  6 28  1  0  0  0  0
  7  8  1  0  0  0  0
  7 29  1  0  0  0  0
  7 30  1  0  0  0  0
  8  9  1  0  0  0  0
  8 12  2  0  0  0  0
  9 11  1  0  0  0  0
  9 31  1  0  0  0  0
  9 32  1  0  0  0  0
 10 12  1  0  0  0  0
 10 33  1  0  0  0  0
 10 34  1  0  0  0  0
 11 13  1  0  0  0  0
 11 35  1  0  0  0  0
 11 36  1  0  0  0  0
 12 37  1  0  0  0  0
 13 14  1  0  0  0  0
 13 38  1  0  0  0  0
 13 39  1  0  0  0  0
 14 16  1  0  0  0  0
 14 17  1  0  0  0  0
 15 40  1  0  0  0  0
 16 41  1  0  0  0  0
 16 42  1  0  0  0  0
 16 43  1  0  0  0  0
 17 44  1  0  0  0  0
 17 45  1  0  0  0  0
 17 46  1  0  0  0  0
 18 19  1  0  0  0  0
 18 20  2  0  0  0  0
 19 21  2  0  0  0  0
 19 24  1  0  0  0  0
 20 22  1  0  0  0  0
 20 48  1  0  0  0  0
 21 23  1  0  0  0  0
 21 49  1  0  0  0  0
 22 23  2  0  0  0  0
 22 50  1  0  0  0  0
 23 51  1  0  0  0  0
 25 52  1  0  0  0  0
 25 53  1  0  0  0  0
 25 54  1  0  0  0  0
M  END
> <PUBCHEM_COMPOUND_CID>
106740

> <PUBCHEM_CONFORMER_RMSD>
1

> <PUBCHEM_CONFORMER_DIVERSEORDER>
1
22
198
163
53
108
168
227
237
235
154
37
45
217
56
23
125
199
60
171
150
132
48
114
138
225
76
210
135
25
212
14
214
33
97
238
124
140
15
74
242
41
207
229
102
230
200
85
187
226
83
7
222
197
136
157
188
109
26
232
236
34
30
35
42
249
240
57
63
70
86
32
153
77
59
181
62
148
145
182
211
141
16
206
189
152
5
19
204
106
72
13
160
99
18
20
159
137
208
130
89
31
93
116
185
149
104
231
196
8
246
173
94
122
66
213
96
6
127
146
46
119
186
115
52
131
98
155
233
126
71
221
178
121
164
243
170
228
100
195
90
69
58
123
82
192
87
91
133
64
201
224
205
165
216
112
9
21
166
24
68
129
40
247
92
95
36
218
245
17
128
29
10
183
65
193
107
176
234
202
4
27
110
117
147
11
156
75
179
162
158
3
2
111
103
120
151
54
84
38
175
49
190
241
101
12
169
78
180
44
184
172
88
134
142
28
167
73
248
209
50
220
194
161
80
191
250
144
61
39
215
67
244
47
143
55
43
51
118
139
203
223
79
177
113
174
105
81
239
219

> <PUBCHEM_MMFF94_PARTIAL_CHARGES>
27
1 -0.68
10 0.14
12 -0.29
14 0.28
15 0.33
18 0.18
19 0.09
2 -0.43
20 -0.15
21 -0.15
22 -0.15
23 -0.15
24 0.63
25 0.28
3 -0.57
37 0.15
4 -0.63
40 0.06
47 0.4
48 0.15
49 0.15
5 0.06
50 0.15
51 0.15
7 0.14
8 -0.28
9 0.14

> <PUBCHEM_EFFECTIVE_ROTOR_COUNT>
8.8

> <PUBCHEM_PHARMACOPHORE_FEATURES>
7
1 1 acceptor
1 1 donor
1 3 acceptor
1 4 acceptor
3 14 16 17 hydrophobe
6 18 19 20 21 22 23 rings
6 5 6 7 8 10 12 rings

> <PUBCHEM_HEAVY_ATOM_COUNT>
25

> <PUBCHEM_ATOM_DEF_STEREO_COUNT>
0

> <PUBCHEM_ATOM_UDEF_STEREO_COUNT>
1

> <PUBCHEM_BOND_DEF_STEREO_COUNT>
0

> <PUBCHEM_BOND_UDEF_STEREO_COUNT>
0

> <PUBCHEM_ISOTOPIC_ATOM_COUNT>
0

> <PUBCHEM_COMPONENT_COUNT>
1

> <PUBCHEM_CACTVS_TAUTO_COUNT>
3

> <PUBCHEM_CONFORMER_ID>
0001A0F400000001

> <PUBCHEM_MMFF94_ENERGY>
53.3494

> <PUBCHEM_FEATURE_SELFOVERLAP>
35.526

> <PUBCHEM_SHAPE_FINGERPRINT>
10366900 7 17987517022357539676
12156800 1 14217545667890375427
12553582 1 18268164191577261769
12633257 1 18411986853614771945
13122387 1 16967447093994966339
13402501 40 18128540370650610454
13726171 33 18049197537158676221
13965767 371 17486491778782502242
14178342 30 17910393883666604664
14725015 67 17909838630789917391
20397935 3 18188223111662737358
20600515 1 18334006190422560813
20603629 256 15984536677437571534
20764821 26 18410864282307888735
20775530 9 18117559741629764883
20905425 154 17904210574095631677
3027735 51 17975677412894602285
35225 105 17903037145811802622
5309563 4 17254564210639999555
57307002 85 18057618564209811958
602551 16 18264767650051354610

> <PUBCHEM_SHAPE_MULTIPOLES>
491.9
7.44
4.57
2.27
2.22
0.7
1.26
2.69
-3.06
-4.36
-0.91
1.66
1.12
1.04

> <PUBCHEM_SHAPE_SELFOVERLAP>
1013.706

> <PUBCHEM_SHAPE_VOLUME>
281.5

> <PUBCHEM_COORDINATE_TYPE>
2
5
10

$$$$
