106745
  -OEChem-11232109213D

 36 38  0     1  0  0  0  0  0999 V2000
    1.3146    0.8555   -0.5289 O   0  0  0  0  0  0  0  0  0  0  0  0
    2.2333    0.3299    1.5204 O   0  0  0  0  0  0  0  0  0  0  0  0
   -2.1096    1.3338   -0.4933 C   0  0  1  0  0  0  0  0  0  0  0  0
   -0.6291    0.4942    0.9466 C   0  0  2  0  0  0  0  0  0  0  0  0
   -2.0300   -0.1554   -0.9160 C   0  0  1  0  0  0  0  0  0  0  0  0
   -1.0126   -0.7404    0.0978 C   0  0  2  0  0  0  0  0  0  0  0  0
   -1.9461    1.2755    1.0289 C   0  0  0  0  0  0  0  0  0  0  0  0
    0.2183    1.4790    0.1104 C   0  0  2  0  0  0  0  0  0  0  0  0
   -0.7934    2.0234   -0.9158 C   0  0  0  0  0  0  0  0  0  0  0  0
   -3.3364   -0.9436   -0.7368 C   0  0  0  0  0  0  0  0  0  0  0  0
   -1.7937   -1.7869    0.8264 C   0  0  0  0  0  0  0  0  0  0  0  0
   -3.0414   -1.9035    0.3661 C   0  0  0  0  0  0  0  0  0  0  0  0
    2.2683    0.3115    0.2969 C   0  0  0  0  0  0  0  0  0  0  0  0
    3.3821   -0.3075   -0.5294 C   0  0  0  0  0  0  0  0  0  0  0  0
    4.4462   -0.8881    0.3943 C   0  0  0  0  0  0  0  0  0  0  0  0
    2.8296   -1.3775   -1.4676 C   0  0  0  0  0  0  0  0  0  0  0  0
   -3.0022    1.8517   -0.8509 H   0  0  0  0  0  0  0  0  0  0  0  0
   -0.2039    0.2418    1.9203 H   0  0  0  0  0  0  0  0  0  0  0  0
   -1.6759   -0.2477   -1.9500 H   0  0  0  0  0  0  0  0  0  0  0  0
   -0.1565   -1.2030   -0.4019 H   0  0  0  0  0  0  0  0  0  0  0  0
   -1.8323    2.2646    1.4866 H   0  0  0  0  0  0  0  0  0  0  0  0
   -2.7525    0.7423    1.5397 H   0  0  0  0  0  0  0  0  0  0  0  0
    0.5830    2.3107    0.7276 H   0  0  0  0  0  0  0  0  0  0  0  0
   -0.5165    1.8111   -1.9533 H   0  0  0  0  0  0  0  0  0  0  0  0
   -0.8904    3.1093   -0.8005 H   0  0  0  0  0  0  0  0  0  0  0  0
   -3.5823   -1.4937   -1.6513 H   0  0  0  0  0  0  0  0  0  0  0  0
   -4.1837   -0.2982   -0.4859 H   0  0  0  0  0  0  0  0  0  0  0  0
   -1.3850   -2.3876    1.6264 H   0  0  0  0  0  0  0  0  0  0  0  0
   -3.7647   -2.6075    0.7522 H   0  0  0  0  0  0  0  0  0  0  0  0
    3.8402    0.4973   -1.1169 H   0  0  0  0  0  0  0  0  0  0  0  0
    5.2775   -1.3046   -0.1842 H   0  0  0  0  0  0  0  0  0  0  0  0
    4.0384   -1.6868    1.0241 H   0  0  0  0  0  0  0  0  0  0  0  0
    4.8543   -0.1177    1.0578 H   0  0  0  0  0  0  0  0  0  0  0  0
    3.6358   -1.8476   -2.0403 H   0  0  0  0  0  0  0  0  0  0  0  0
    2.1186   -0.9514   -2.1833 H   0  0  0  0  0  0  0  0  0  0  0  0
    2.3048   -2.1604   -0.9089 H   0  0  0  0  0  0  0  0  0  0  0  0
  1  8  1  0  0  0  0
  1 13  1  0  0  0  0
  2 13  2  0  0  0  0
  3  5  1  0  0  0  0
  3  7  1  0  0  0  0
  3  9  1  0  0  0  0
  3 17  1  0  0  0  0
  4  6  1  0  0  0  0
  4  7  1  0  0  0  0
  4  8  1  0  0  0  0
  4 18  1  0  0  0  0
  5  6  1  0  0  0  0
  5 10  1  0  0  0  0
  5 19  1  0  0  0  0
  6 11  1  0  0  0  0
  6 20  1  0  0  0  0
  7 21  1  0  0  0  0
  7 22  1  0  0  0  0
  8  9  1  0  0  0  0
  8 23  1  0  0  0  0
  9 24  1  0  0  0  0
  9 25  1  0  0  0  0
 10 12  1  0  0  0  0
 10 26  1  0  0  0  0
 10 27  1  0  0  0  0
 11 12  2  0  0  0  0
 11 28  1  0  0  0  0
 12 29  1  0  0  0  0
 13 14  1  0  0  0  0
 14 15  1  0  0  0  0
 14 16  1  0  0  0  0
 14 30  1  0  0  0  0
 15 31  1  0  0  0  0
 15 32  1  0  0  0  0
 15 33  1  0  0  0  0
 16 34  1  0  0  0  0
 16 35  1  0  0  0  0
 16 36  1  0  0  0  0
M  END
> <PUBCHEM_COMPOUND_CID>
106745

> <PUBCHEM_CONFORMER_RMSD>
0.6

> <PUBCHEM_CONFORMER_DIVERSEORDER>
2
54
17
16
32
40
34
45
72
61
46
55
29
51
76
62
74
77
63
36
8
49
25
24
20
64
52
33
10
37
38
27
75
56
12
19
43
41
57
28
22
42
50
59
48
11
53
15
14
58
6
60
21
68
44
7
39
69
35
23
18
47
5
71
4
3
65
73
66
31
13
67
1
9
26
70
30

> <PUBCHEM_MMFF94_PARTIAL_CHARGES>
11
1 -0.43
10 0.14
11 -0.29
12 -0.29
13 0.66
14 0.06
2 -0.57
28 0.15
29 0.15
6 0.14
8 0.28

> <PUBCHEM_EFFECTIVE_ROTOR_COUNT>
3.8

> <PUBCHEM_PHARMACOPHORE_FEATURES>
4
1 2 acceptor
3 14 15 16 hydrophobe
5 5 6 10 11 12 rings
7 3 4 5 6 7 8 9 rings

> <PUBCHEM_HEAVY_ATOM_COUNT>
16

> <PUBCHEM_ATOM_DEF_STEREO_COUNT>
0

> <PUBCHEM_ATOM_UDEF_STEREO_COUNT>
5

> <PUBCHEM_BOND_DEF_STEREO_COUNT>
0

> <PUBCHEM_BOND_UDEF_STEREO_COUNT>
0

> <PUBCHEM_ISOTOPIC_ATOM_COUNT>
0

> <PUBCHEM_COMPONENT_COUNT>
1

> <PUBCHEM_CACTVS_TAUTO_COUNT>
1

> <PUBCHEM_CONFORMER_ID>
0001A0F900000002

> <PUBCHEM_MMFF94_ENERGY>
47.0552

> <PUBCHEM_FEATURE_SELFOVERLAP>
20.38

> <PUBCHEM_SHAPE_FINGERPRINT>
10618630 7 18340490070367604183
11127187 94 18113052757531326143
11322862 65 18194976144882670783
11471102 22 17203325611512077180
12202030 40 18130793317647669062
12251169 10 13901910045978396858
13024252 1 15285366098079058145
13296908 3 18411414046637553008
14787075 74 13894822791499341865
15061688 2 12750421119724914675
16752209 62 18187629298480573723
16945 1 18187917357589492461
18981168 100 13479710809527677742
19862831 5 17095520703858436706
19868273 293 17604136035177163941
200 152 17346586470035974885
20645476 183 16805598170679718131
20645477 70 17831011700200522039
20671657 53 18187645855194417044
20871998 22 18192150619000394387
20871999 31 18260830388526580620
21061003 4 17489585696854360648
21296965 67 18264207087930957475
21524375 3 16882712229578466901
22721475 48 18341619251687509198
23557571 272 18410566280534516936
23559900 14 18337660963258180192
2748010 2 17972305485393316049
31174 14 17203042023015805546
369184 2 16630804413360208201
5262128 65 18188505660708391324
7364860 26 18050572046910009373
74978 22 18187364324583701860
8030462 33 16950277395367226680
81228 2 18410011013992777617
9709674 26 18342740668017909662

> <PUBCHEM_SHAPE_MULTIPOLES>
317.53
6.25
2.01
1.24
5.84
0
0
-3.15
-0.39
-1.27
-0.1
0.2
-0.03
0.45

> <PUBCHEM_SHAPE_SELFOVERLAP>
681.891

> <PUBCHEM_SHAPE_VOLUME>
181.6

> <PUBCHEM_COORDINATE_TYPE>
2
5
10

$$$$
