106728
  -OEChem-11232108563D

 51 53  0     1  0  0  0  0  0999 V2000
    3.6939    0.0110    0.0013 O   0  0  0  0  0  0  0  0  0  0  0  0
    5.2770   -1.4037   -0.9018 O   0  0  0  0  0  0  0  0  0  0  0  0
   -4.4318   -0.5136   -0.5351 C   0  0  0  0  0  0  0  0  0  0  0  0
   -4.3815    0.6988   -1.4135 C   0  0  1  0  0  0  0  0  0  0  0  0
   -5.4493    0.5751   -0.3820 C   0  0  2  0  0  0  0  0  0  0  0  0
   -3.3886   -0.3558    0.5638 C   0  0  2  0  0  0  0  0  0  0  0  0
   -3.5111    1.2247    0.6265 C   0  0  0  0  0  0  0  0  0  0  0  0
   -3.3377    1.6507   -0.8719 C   0  0  0  0  0  0  0  0  0  0  0  0
   -5.0538    1.4519    0.7858 C   0  0  0  0  0  0  0  0  0  0  0  0
   -4.8022   -1.8365   -1.0773 C   0  0  0  0  0  0  0  0  0  0  0  0
   -1.9994   -0.8484    0.1420 C   0  0  0  0  0  0  0  0  0  0  0  0
   -3.7877   -1.0560    1.8681 C   0  0  0  0  0  0  0  0  0  0  0  0
   -0.9367   -0.4072    1.1410 C   0  0  0  0  0  0  0  0  0  0  0  0
    0.4212   -0.9016    0.7296 C   0  0  0  0  0  0  0  0  0  0  0  0
    1.3242   -0.2762   -0.0499 C   0  0  0  0  0  0  0  0  0  0  0  0
    2.6566   -0.8496   -0.4500 C   0  0  0  0  0  0  0  0  0  0  0  0
    1.0195    1.0849   -0.6204 C   0  0  0  0  0  0  0  0  0  0  0  0
    4.9717   -0.3871   -0.2937 C   0  0  0  0  0  0  0  0  0  0  0  0
    5.9487    0.6291    0.2523 C   0  0  0  0  0  0  0  0  0  0  0  0
    7.3977    0.2326   -0.0198 C   0  0  0  0  0  0  0  0  0  0  0  0
    8.3694    1.2772    0.5049 C   0  0  0  0  0  0  0  0  0  0  0  0
   -4.5901    0.6809   -2.4653 H   0  0  0  0  0  0  0  0  0  0  0  0
   -6.4854    0.4613   -0.6343 H   0  0  0  0  0  0  0  0  0  0  0  0
   -2.8913    1.7518    1.3515 H   0  0  0  0  0  0  0  0  0  0  0  0
   -2.3416    1.4687   -1.2772 H   0  0  0  0  0  0  0  0  0  0  0  0
   -3.6142    2.6964   -1.0415 H   0  0  0  0  0  0  0  0  0  0  0  0
   -5.3417    2.4964    0.6300 H   0  0  0  0  0  0  0  0  0  0  0  0
   -5.4528    1.0978    1.7387 H   0  0  0  0  0  0  0  0  0  0  0  0
   -5.1825   -2.4899   -0.2859 H   0  0  0  0  0  0  0  0  0  0  0  0
   -5.5812   -1.7578   -1.8435 H   0  0  0  0  0  0  0  0  0  0  0  0
   -3.9373   -2.3258   -1.5360 H   0  0  0  0  0  0  0  0  0  0  0  0
   -1.7368   -0.5163   -0.8685 H   0  0  0  0  0  0  0  0  0  0  0  0
   -2.0052   -1.9456    0.0750 H   0  0  0  0  0  0  0  0  0  0  0  0
   -4.8646   -1.0006    2.0586 H   0  0  0  0  0  0  0  0  0  0  0  0
   -3.5480   -2.1252    1.8346 H   0  0  0  0  0  0  0  0  0  0  0  0
   -3.2804   -0.6184    2.7337 H   0  0  0  0  0  0  0  0  0  0  0  0
   -1.1358   -0.8230    2.1352 H   0  0  0  0  0  0  0  0  0  0  0  0
   -0.9233    0.6778    1.2749 H   0  0  0  0  0  0  0  0  0  0  0  0
    0.6749   -1.8946    1.0985 H   0  0  0  0  0  0  0  0  0  0  0  0
    2.7958   -1.8448   -0.0105 H   0  0  0  0  0  0  0  0  0  0  0  0
    2.7005   -0.9434   -1.5418 H   0  0  0  0  0  0  0  0  0  0  0  0
    1.2197    1.0891   -1.6977 H   0  0  0  0  0  0  0  0  0  0  0  0
   -0.0161    1.4070   -0.5006 H   0  0  0  0  0  0  0  0  0  0  0  0
    1.6591    1.8408   -0.1530 H   0  0  0  0  0  0  0  0  0  0  0  0
    5.7334    1.5945   -0.2193 H   0  0  0  0  0  0  0  0  0  0  0  0
    5.7860    0.7149    1.3325 H   0  0  0  0  0  0  0  0  0  0  0  0
    7.5548    0.1034   -1.0974 H   0  0  0  0  0  0  0  0  0  0  0  0
    7.6151   -0.7343    0.4497 H   0  0  0  0  0  0  0  0  0  0  0  0
    8.2610    1.4051    1.5867 H   0  0  0  0  0  0  0  0  0  0  0  0
    8.2001    2.2465    0.0251 H   0  0  0  0  0  0  0  0  0  0  0  0
    9.4005    0.9724    0.3004 H   0  0  0  0  0  0  0  0  0  0  0  0
  1 16  1  0  0  0  0
  1 18  1  0  0  0  0
  2 18  2  0  0  0  0
  3  4  1  0  0  0  0
  3  5  1  0  0  0  0
  3  6  1  0  0  0  0
  3 10  1  0  0  0  0
  4  5  1  0  0  0  0
  4  8  1  0  0  0  0
  4 22  1  0  0  0  0
  5  9  1  0  0  0  0
  5 23  1  0  0  0  0
  6  7  1  0  0  0  0
  6 11  1  0  0  0  0
  6 12  1  0  0  0  0
  7  8  1  0  0  0  0
  7  9  1  0  0  0  0
  7 24  1  0  0  0  0
  8 25  1  0  0  0  0
  8 26  1  0  0  0  0
  9 27  1  0  0  0  0
  9 28  1  0  0  0  0
 10 29  1  0  0  0  0
 10 30  1  0  0  0  0
 10 31  1  0  0  0  0
 11 13  1  0  0  0  0
 11 32  1  0  0  0  0
 11 33  1  0  0  0  0
 12 34  1  0  0  0  0
 12 35  1  0  0  0  0
 12 36  1  0  0  0  0
 13 14  1  0  0  0  0
 13 37  1  0  0  0  0
 13 38  1  0  0  0  0
 14 15  2  3  0  0  0
 14 39  1  0  0  0  0
 15 16  1  0  0  0  0
 15 17  1  0  0  0  0
 16 40  1  0  0  0  0
 16 41  1  0  0  0  0
 17 42  1  0  0  0  0
 17 43  1  0  0  0  0
 17 44  1  0  0  0  0
 18 19  1  0  0  0  0
 19 20  1  0  0  0  0
 19 45  1  0  0  0  0
 19 46  1  0  0  0  0
 20 21  1  0  0  0  0
 20 47  1  0  0  0  0
 20 48  1  0  0  0  0
 21 49  1  0  0  0  0
 21 50  1  0  0  0  0
 21 51  1  0  0  0  0
M  END
> <PUBCHEM_COMPOUND_CID>
106728

> <PUBCHEM_CONFORMER_RMSD>
0.8

> <PUBCHEM_CONFORMER_DIVERSEORDER>
2
133
100
116
60
119
1
107
125
28
103
33
13
98
4
106
10
128
15
6
139
25
86
136
49
99
71
124
23
117
29
105
77
8
129
7
82
87
112
75
138
97
46
20
47
140
110
111
113
39
56
130
80
31
18
135
123
26
44
12
91
9
109
67
94
127
40
22
69
132
50
30
78
21
104
16
84
118
37
92
54
137
65
101
3
74
70
141
43
35
24
5
96
32
45
115
19
81
62
85
61
27
114
88
102
93
66
134
34
58
68
83
126
17
59
95
48
11
53
120
57
73
52
42
64
90
36
131
122
79
55
89
41
14
72
108
51
121
38
63
76

> <PUBCHEM_MMFF94_PARTIAL_CHARGES>
19
1 -0.43
10 0.09
13 0.14
14 -0.29
15 -0.28
16 0.42
17 0.14
18 0.66
19 0.06
2 -0.57
22 0.1
23 0.1
3 -0.19
39 0.15
4 -0.19
5 -0.19
6 0.09
8 0.09
9 0.09

> <PUBCHEM_EFFECTIVE_ROTOR_COUNT>
8.6

> <PUBCHEM_PHARMACOPHORE_FEATURES>
4
1 17 hydrophobe
1 2 acceptor
1 21 hydrophobe
7 3 4 5 6 7 8 9 rings

> <PUBCHEM_HEAVY_ATOM_COUNT>
21

> <PUBCHEM_ATOM_DEF_STEREO_COUNT>
0

> <PUBCHEM_ATOM_UDEF_STEREO_COUNT>
0

> <PUBCHEM_BOND_DEF_STEREO_COUNT>
0

> <PUBCHEM_BOND_UDEF_STEREO_COUNT>
1

> <PUBCHEM_ISOTOPIC_ATOM_COUNT>
0

> <PUBCHEM_COMPONENT_COUNT>
1

> <PUBCHEM_CACTVS_TAUTO_COUNT>
1

> <PUBCHEM_CONFORMER_ID>
0001A0E800000002

> <PUBCHEM_MMFF94_ENERGY>
65.3037

> <PUBCHEM_FEATURE_SELFOVERLAP>
20.297

> <PUBCHEM_SHAPE_FINGERPRINT>
10 15 16443355286127409628
10087517 78 18186799149848225924
10299344 5 9439405744566322056
11089746 13 17967811674212697420
11315181 36 18413387648787970373
11524674 6 12179847208115962224
12091667 2 18409450305975043146
12507557 5 16660650661096869997
12516196 113 18342738516371162800
12616971 3 14273461409753307010
12838862 33 17603853482744287829
13288520 33 11887951051907197955
13533116 47 17203331053774270422
13631057 29 17774714385465424679
14251764 18 15140967279395845274
15021287 119 14345798275133270150
15183329 4 18411417276737971658
15348495 7 12540710244645873956
15461852 350 18340771546019665446
15716309 27 8286196154416094688
17093844 174 15647049395499746036
17780758 139 8790888493014590639
18927931 339 13758073004643542107
19489759 90 17967814954913584043
20281389 69 17822007601974998036
21150785 3 16845569838292410956
21756936 100 18040155089998036081
220451 1 12895360984339068734
23035841 295 11455891364813183596
23081809 10 15913055279328026634
23198884 109 18131071490074084441
23402539 116 17847063255177979793
23559900 14 17917421051357328185
2767999 5 18114180835207958316
300161 21 17894909607578225250
328310 630 17988654029382320768
3545911 37 17821733814820844867
4073 2 18412268341545637990
4325135 7 14189577438181160336
531348 171 18267582408118842943
543368 44 18335419050094921209
7226269 152 17458062660105863600

> <PUBCHEM_SHAPE_MULTIPOLES>
420.43
19.97
1.55
1.22
43.08
0.1
0.15
4.68
-0.45
-1.24
-0.12
-1.46
-0.18
0.57

> <PUBCHEM_SHAPE_SELFOVERLAP>
873.496

> <PUBCHEM_SHAPE_VOLUME>
247.4

> <PUBCHEM_COORDINATE_TYPE>
2
5
10

$$$$
