106775
  -OEChem-11232108533D

 37 38  0     1  0  0  0  0  0999 V2000
    3.6454    1.1501   -0.8184 O   0  0  0  0  0  0  0  0  0  0  0  0
   -1.0287    0.8095   -0.0536 C   0  0  2  0  0  0  0  0  0  0  0  0
   -2.1910    0.3392   -0.9978 C   0  0  2  0  0  0  0  0  0  0  0  0
   -2.7237   -0.6743    0.9212 C   0  0  1  0  0  0  0  0  0  0  0  0
   -1.4047    0.0547    1.2799 C   0  0  0  0  0  0  0  0  0  0  0  0
   -3.3838    0.3293   -0.0270 C   0  0  0  0  0  0  0  0  0  0  0  0
   -2.0980   -1.1527   -1.2353 C   0  0  0  0  0  0  0  0  0  0  0  0
   -2.4045   -1.7586   -0.0792 C   0  0  0  0  0  0  0  0  0  0  0  0
   -0.9965    2.3334    0.1588 C   0  0  0  0  0  0  0  0  0  0  0  0
    0.2997    0.3807   -0.5885 C   0  0  0  0  0  0  0  0  0  0  0  0
    1.5071    0.4641    0.0056 C   0  0  0  0  0  0  0  0  0  0  0  0
    2.8074    0.0059   -0.6284 C   0  0  2  0  0  0  0  0  0  0  0  0
    1.6090    1.0561    1.3911 C   0  0  0  0  0  0  0  0  0  0  0  0
    3.5776   -1.0344    0.1987 C   0  0  0  0  0  0  0  0  0  0  0  0
    2.7847   -2.3028    0.4729 C   0  0  0  0  0  0  0  0  0  0  0  0
   -2.3488    0.9359   -1.8984 H   0  0  0  0  0  0  0  0  0  0  0  0
   -3.3375   -0.9941    1.7638 H   0  0  0  0  0  0  0  0  0  0  0  0
   -1.5947    0.7641    2.0944 H   0  0  0  0  0  0  0  0  0  0  0  0
   -0.6496   -0.6662    1.6148 H   0  0  0  0  0  0  0  0  0  0  0  0
   -4.3097   -0.0467   -0.4826 H   0  0  0  0  0  0  0  0  0  0  0  0
   -3.5988    1.2927    0.4435 H   0  0  0  0  0  0  0  0  0  0  0  0
   -1.7838   -1.6346   -2.1474 H   0  0  0  0  0  0  0  0  0  0  0  0
   -2.3855   -2.8191    0.1139 H   0  0  0  0  0  0  0  0  0  0  0  0
   -1.9751    2.7162    0.4661 H   0  0  0  0  0  0  0  0  0  0  0  0
   -0.2924    2.6815    0.9155 H   0  0  0  0  0  0  0  0  0  0  0  0
   -0.7452    2.8448   -0.7789 H   0  0  0  0  0  0  0  0  0  0  0  0
    0.3039   -0.0118   -1.6052 H   0  0  0  0  0  0  0  0  0  0  0  0
    2.6134   -0.4075   -1.6251 H   0  0  0  0  0  0  0  0  0  0  0  0
    2.1014    2.0333    1.3407 H   0  0  0  0  0  0  0  0  0  0  0  0
    0.6817    1.1850    1.9419 H   0  0  0  0  0  0  0  0  0  0  0  0
    2.2161    0.4146    2.0372 H   0  0  0  0  0  0  0  0  0  0  0  0
    4.4897   -1.3007   -0.3518 H   0  0  0  0  0  0  0  0  0  0  0  0
    3.9392   -0.6076    1.1416 H   0  0  0  0  0  0  0  0  0  0  0  0
    3.9911    1.4237    0.0481 H   0  0  0  0  0  0  0  0  0  0  0  0
    3.4163   -3.0374    0.9829 H   0  0  0  0  0  0  0  0  0  0  0  0
    1.9194   -2.1078    1.1133 H   0  0  0  0  0  0  0  0  0  0  0  0
    2.4302   -2.7525   -0.4601 H   0  0  0  0  0  0  0  0  0  0  0  0
  1 12  1  0  0  0  0
  1 34  1  0  0  0  0
  2  3  1  0  0  0  0
  2  5  1  0  0  0  0
  2  9  1  0  0  0  0
  2 10  1  0  0  0  0
  3  6  1  0  0  0  0
  3  7  1  0  0  0  0
  3 16  1  0  0  0  0
  4  5  1  0  0  0  0
  4  6  1  0  0  0  0
  4  8  1  0  0  0  0
  4 17  1  0  0  0  0
  5 18  1  0  0  0  0
  5 19  1  0  0  0  0
  6 20  1  0  0  0  0
  6 21  1  0  0  0  0
  7  8  2  0  0  0  0
  7 22  1  0  0  0  0
  8 23  1  0  0  0  0
  9 24  1  0  0  0  0
  9 25  1  0  0  0  0
  9 26  1  0  0  0  0
 10 11  2  3  0  0  0
 10 27  1  0  0  0  0
 11 12  1  0  0  0  0
 11 13  1  0  0  0  0
 12 14  1  0  0  0  0
 12 28  1  0  0  0  0
 13 29  1  0  0  0  0
 13 30  1  0  0  0  0
 13 31  1  0  0  0  0
 14 15  1  0  0  0  0
 14 32  1  0  0  0  0
 14 33  1  0  0  0  0
 15 35  1  0  0  0  0
 15 36  1  0  0  0  0
 15 37  1  0  0  0  0
M  END
> <PUBCHEM_COMPOUND_CID>
106775

> <PUBCHEM_CONFORMER_RMSD>
0.6

> <PUBCHEM_CONFORMER_DIVERSEORDER>
1
10
4
12
9
2
11
6
3
5
7
8

> <PUBCHEM_MMFF94_PARTIAL_CHARGES>
14
1 -0.68
10 -0.29
11 -0.28
12 0.42
13 0.14
2 0.14
22 0.15
23 0.15
27 0.15
3 0.14
34 0.4
4 0.14
7 -0.29
8 -0.29

> <PUBCHEM_EFFECTIVE_ROTOR_COUNT>
3.6

> <PUBCHEM_PHARMACOPHORE_FEATURES>
5
1 1 acceptor
1 1 donor
1 13 hydrophobe
1 15 hydrophobe
7 2 3 4 5 6 7 8 rings

> <PUBCHEM_HEAVY_ATOM_COUNT>
15

> <PUBCHEM_ATOM_DEF_STEREO_COUNT>
0

> <PUBCHEM_ATOM_UDEF_STEREO_COUNT>
0

> <PUBCHEM_BOND_DEF_STEREO_COUNT>
0

> <PUBCHEM_BOND_UDEF_STEREO_COUNT>
1

> <PUBCHEM_ISOTOPIC_ATOM_COUNT>
0

> <PUBCHEM_COMPONENT_COUNT>
1

> <PUBCHEM_CACTVS_TAUTO_COUNT>
1

> <PUBCHEM_CONFORMER_ID>
0001A11700000001

> <PUBCHEM_MMFF94_ENERGY>
59.2364

> <PUBCHEM_FEATURE_SELFOVERLAP>
25.371

> <PUBCHEM_SHAPE_FINGERPRINT>
11769659 78 18409725162401823830
12173636 292 14779810643185353535
12251169 10 17346884472088979811
12553582 1 18342176678434229238
12932764 1 18201999949525200472
13024252 1 17022624187081028085
13296908 3 18338231669331525353
14144814 61 17632580452548292414
15309172 13 16487259880398300310
15375462 189 18343588455696340266
15775835 57 18343025501310788470
16945 1 18188757440465891877
18186145 218 16153423952486419604
18619055 16 18408317774469695598
200 152 18408318895693562638
20281407 28 18343302578314691592
20281475 54 18341896294358119218
20361792 2 18341327894028006373
20442098 301 18343016649694648726
20645464 45 9367354746807064777
20645477 70 18408601431437921118
21501502 16 18339083670631648080
21524375 3 17765148367936679145
21731516 1 18272085015444750342
23402539 116 17458339754563884308
23419403 2 11325762161963597869
23463225 33 18410856521196353534
23557571 272 16081369695442921607
23559900 14 18336256895320168112
369184 2 17417811798681443225
58051976 100 18190185581189221932
74978 22 17846212297533940713

> <PUBCHEM_SHAPE_MULTIPOLES>
302.82
6.1
1.97
1.18
3.52
0.22
-0.13
1.76
0.37
0.4
-0.15
-0.17
-0.03
-0.35

> <PUBCHEM_SHAPE_SELFOVERLAP>
630.454

> <PUBCHEM_SHAPE_VOLUME>
178.2

> <PUBCHEM_COORDINATE_TYPE>
2
5
10

$$$$
