106734
  -OEChem-11232108593D

 29 30  0     1  0  0  0  0  0999 V2000
    0.7271    1.5287    0.2848 N   0  0  0  0  0  0  0  0  0  0  0  0
   -1.9470    0.6391    0.5048 C   0  0  1  0  0  0  0  0  0  0  0  0
   -0.7995   -0.2875    0.2448 C   0  0  0  0  0  0  0  0  0  0  0  0
   -3.0230    0.6435   -0.6120 C   0  0  0  0  0  0  0  0  0  0  0  0
    0.4974    0.2093    0.1462 C   0  0  0  0  0  0  0  0  0  0  0  0
   -2.6298    0.3238    1.8501 C   0  0  0  0  0  0  0  0  0  0  0  0
   -1.0743   -1.6502    0.1064 C   0  0  0  0  0  0  0  0  0  0  0  0
    1.5417   -0.7065   -0.0996 C   0  0  0  0  0  0  0  0  0  0  0  0
   -2.4542    1.0082   -1.9780 C   0  0  0  0  0  0  0  0  0  0  0  0
   -0.0407   -2.5465   -0.1356 C   0  0  0  0  0  0  0  0  0  0  0  0
    1.2657   -2.0772   -0.2387 C   0  0  0  0  0  0  0  0  0  0  0  0
    2.8474   -0.2070   -0.1987 C   0  0  0  0  0  0  0  0  0  0  0  0
    3.0874    1.1521   -0.0565 C   0  0  0  0  0  0  0  0  0  0  0  0
    2.0018    1.9702    0.1820 C   0  0  0  0  0  0  0  0  0  0  0  0
   -1.5949    1.6746    0.5886 H   0  0  0  0  0  0  0  0  0  0  0  0
   -3.8027    1.3714   -0.3547 H   0  0  0  0  0  0  0  0  0  0  0  0
   -3.5194   -0.3318   -0.6829 H   0  0  0  0  0  0  0  0  0  0  0  0
   -1.9011    0.3339    2.6684 H   0  0  0  0  0  0  0  0  0  0  0  0
   -3.3957    1.0737    2.0770 H   0  0  0  0  0  0  0  0  0  0  0  0
   -3.1181   -0.6566    1.8473 H   0  0  0  0  0  0  0  0  0  0  0  0
   -2.0875   -2.0347    0.1827 H   0  0  0  0  0  0  0  0  0  0  0  0
   -3.2637    1.0862   -2.7108 H   0  0  0  0  0  0  0  0  0  0  0  0
   -1.9371    1.9723   -1.9427 H   0  0  0  0  0  0  0  0  0  0  0  0
   -1.7526    0.2512   -2.3409 H   0  0  0  0  0  0  0  0  0  0  0  0
   -0.2499   -3.6063   -0.2441 H   0  0  0  0  0  0  0  0  0  0  0  0
    2.0675   -2.7873   -0.4285 H   0  0  0  0  0  0  0  0  0  0  0  0
    3.6848   -0.8748   -0.3873 H   0  0  0  0  0  0  0  0  0  0  0  0
    4.0905    1.5553   -0.1303 H   0  0  0  0  0  0  0  0  0  0  0  0
    2.1282    3.0412    0.3019 H   0  0  0  0  0  0  0  0  0  0  0  0
  1  5  1  0  0  0  0
  1 14  2  0  0  0  0
  2  3  1  0  0  0  0
  2  4  1  0  0  0  0
  2  6  1  0  0  0  0
  2 15  1  0  0  0  0
  3  5  1  0  0  0  0
  3  7  2  0  0  0  0
  4  9  1  0  0  0  0
  4 16  1  0  0  0  0
  4 17  1  0  0  0  0
  5  8  2  0  0  0  0
  6 18  1  0  0  0  0
  6 19  1  0  0  0  0
  6 20  1  0  0  0  0
  7 10  1  0  0  0  0
  7 21  1  0  0  0  0
  8 11  1  0  0  0  0
  8 12  1  0  0  0  0
  9 22  1  0  0  0  0
  9 23  1  0  0  0  0
  9 24  1  0  0  0  0
 10 11  2  0  0  0  0
 10 25  1  0  0  0  0
 11 26  1  0  0  0  0
 12 13  2  0  0  0  0
 12 27  1  0  0  0  0
 13 14  1  0  0  0  0
 13 28  1  0  0  0  0
 14 29  1  0  0  0  0
M  END
> <PUBCHEM_COMPOUND_CID>
106734

> <PUBCHEM_CONFORMER_RMSD>
0.6

> <PUBCHEM_CONFORMER_DIVERSEORDER>
1
7
5
3
6
4
2

> <PUBCHEM_MMFF94_PARTIAL_CHARGES>
16
1 -0.62
10 -0.15
11 -0.15
12 -0.15
13 -0.15
14 0.16
2 0.14
21 0.15
25 0.15
26 0.15
27 0.15
28 0.15
29 0.15
3 -0.14
5 0.31
7 -0.15

> <PUBCHEM_EFFECTIVE_ROTOR_COUNT>
2

> <PUBCHEM_PHARMACOPHORE_FEATURES>
5
1 1 acceptor
1 6 hydrophobe
1 9 hydrophobe
6 1 5 8 12 13 14 rings
6 3 5 7 8 10 11 rings

> <PUBCHEM_HEAVY_ATOM_COUNT>
14

> <PUBCHEM_ATOM_DEF_STEREO_COUNT>
0

> <PUBCHEM_ATOM_UDEF_STEREO_COUNT>
1

> <PUBCHEM_BOND_DEF_STEREO_COUNT>
0

> <PUBCHEM_BOND_UDEF_STEREO_COUNT>
0

> <PUBCHEM_ISOTOPIC_ATOM_COUNT>
0

> <PUBCHEM_COMPONENT_COUNT>
1

> <PUBCHEM_CACTVS_TAUTO_COUNT>
1

> <PUBCHEM_CONFORMER_ID>
0001A0EE00000001

> <PUBCHEM_MMFF94_ENERGY>
38.2787

> <PUBCHEM_FEATURE_SELFOVERLAP>
25.403

> <PUBCHEM_SHAPE_FINGERPRINT>
1 1 18409443657175699998
11206711 2 18124032600805128998
11578080 2 13480827999768877855
12423570 1 9760417126958569416
124424 183 17749659689221601568
12730499 353 18188763934836316877
13380535 76 18412542145499326162
13464514 151 17610326152445004077
14614273 12 18049152568823836149
14817 1 11501339643461043967
15309172 13 18338809982372395729
15775835 57 18334857246496932149
15852999 172 18055041463161150752
16945 1 18340492162211791226
17844478 74 17895209808643955937
18186145 218 18343309162578736132
18219364 16 18408610261790142889
21501502 16 18196378249931022394
21524375 3 18336545009852153130
21639500 275 18339911641473315549
21947302 44 17825651284355921925
22112679 90 17131262429589867601
228727 97 17560794438225310097
2334 1 18196374947053724994
23493267 7 17313673633388858104
23557571 272 17313400984954900149
23559900 14 18200610202385260500
23598291 2 17487062146149309031
25 1 18336821983734545981
2748010 2 18340494490252883678
528886 8 18341896303063994656
63268167 104 18342171116351250139
77492 1 17489022644080089329
81228 2 17688872355419304546

> <PUBCHEM_SHAPE_MULTIPOLES>
283.13
4.53
2.29
1.21
0.14
1.09
-0.1
-2.07
-0.29
-0.89
-0.17
1.45
-0.39
0.43

> <PUBCHEM_SHAPE_SELFOVERLAP>
604.86

> <PUBCHEM_SHAPE_VOLUME>
157.5

> <PUBCHEM_COORDINATE_TYPE>
2
5
10

$$$$
