106714
  -OEChem-11232109423D

 34 34  0     1  0  0  0  0  0999 V2000
    2.0463    0.7207    0.2272 O   0  0  0  0  0  0  0  0  0  0  0  0
   -1.7359    0.8620    0.0206 C   0  0  0  0  0  0  0  0  0  0  0  0
   -1.9642   -0.6311    0.3558 C   0  0  0  0  0  0  0  0  0  0  0  0
   -0.9145   -1.5692   -0.2632 C   0  0  1  0  0  0  0  0  0  0  0  0
   -0.2844    1.2597    0.3640 C   0  0  0  0  0  0  0  0  0  0  0  0
    0.7621    0.3319   -0.2537 C   0  0  2  0  0  0  0  0  0  0  0  0
    0.5024   -1.1270    0.1158 C   0  0  0  0  0  0  0  0  0  0  0  0
   -2.0369    1.1382   -1.4650 C   0  0  0  0  0  0  0  0  0  0  0  0
   -2.7010    1.7164    0.8644 C   0  0  0  0  0  0  0  0  0  0  0  0
   -1.1606   -3.0125    0.1768 C   0  0  0  0  0  0  0  0  0  0  0  0
    3.0748   -0.0781   -0.3384 C   0  0  0  0  0  0  0  0  0  0  0  0
    4.4120    0.3891    0.1958 C   0  0  0  0  0  0  0  0  0  0  0  0
   -2.9663   -0.9370    0.0276 H   0  0  0  0  0  0  0  0  0  0  0  0
   -1.9479   -0.7591    1.4472 H   0  0  0  0  0  0  0  0  0  0  0  0
   -1.0105   -1.5396   -1.3556 H   0  0  0  0  0  0  0  0  0  0  0  0
   -0.1484    1.2612    1.4549 H   0  0  0  0  0  0  0  0  0  0  0  0
   -0.0828    2.2930    0.0516 H   0  0  0  0  0  0  0  0  0  0  0  0
    0.7517    0.4516   -1.3441 H   0  0  0  0  0  0  0  0  0  0  0  0
    0.6830   -1.2794    1.1882 H   0  0  0  0  0  0  0  0  0  0  0  0
    1.1852   -1.8010   -0.4113 H   0  0  0  0  0  0  0  0  0  0  0  0
   -1.8980    2.1994   -1.7018 H   0  0  0  0  0  0  0  0  0  0  0  0
   -1.3917    0.5675   -2.1386 H   0  0  0  0  0  0  0  0  0  0  0  0
   -3.0735    0.8788   -1.7090 H   0  0  0  0  0  0  0  0  0  0  0  0
   -2.5683    2.7843    0.6573 H   0  0  0  0  0  0  0  0  0  0  0  0
   -3.7451    1.4610    0.6511 H   0  0  0  0  0  0  0  0  0  0  0  0
   -2.5343    1.5633    1.9367 H   0  0  0  0  0  0  0  0  0  0  0  0
   -0.4366   -3.6897   -0.2884 H   0  0  0  0  0  0  0  0  0  0  0  0
   -1.0739   -3.1189    1.2635 H   0  0  0  0  0  0  0  0  0  0  0  0
   -2.1629   -3.3417   -0.1168 H   0  0  0  0  0  0  0  0  0  0  0  0
    2.9897   -1.1261   -0.0431 H   0  0  0  0  0  0  0  0  0  0  0  0
    3.0604    0.0005   -1.4310 H   0  0  0  0  0  0  0  0  0  0  0  0
    5.2301   -0.2070   -0.2185 H   0  0  0  0  0  0  0  0  0  0  0  0
    4.5804    1.4414   -0.0562 H   0  0  0  0  0  0  0  0  0  0  0  0
    4.4393    0.3159    1.2882 H   0  0  0  0  0  0  0  0  0  0  0  0
  1  6  1  0  0  0  0
  1 11  1  0  0  0  0
  2  3  1  0  0  0  0
  2  5  1  0  0  0  0
  2  8  1  0  0  0  0
  2  9  1  0  0  0  0
  3  4  1  0  0  0  0
  3 13  1  0  0  0  0
  3 14  1  0  0  0  0
  4  7  1  0  0  0  0
  4 10  1  0  0  0  0
  4 15  1  0  0  0  0
  5  6  1  0  0  0  0
  5 16  1  0  0  0  0
  5 17  1  0  0  0  0
  6  7  1  0  0  0  0
  6 18  1  0  0  0  0
  7 19  1  0  0  0  0
  7 20  1  0  0  0  0
  8 21  1  0  0  0  0
  8 22  1  0  0  0  0
  8 23  1  0  0  0  0
  9 24  1  0  0  0  0
  9 25  1  0  0  0  0
  9 26  1  0  0  0  0
 10 27  1  0  0  0  0
 10 28  1  0  0  0  0
 10 29  1  0  0  0  0
 11 12  1  0  0  0  0
 11 30  1  0  0  0  0
 11 31  1  0  0  0  0
 12 32  1  0  0  0  0
 12 33  1  0  0  0  0
 12 34  1  0  0  0  0
M  END
> <PUBCHEM_COMPOUND_CID>
106714

> <PUBCHEM_CONFORMER_RMSD>
0.6

> <PUBCHEM_CONFORMER_DIVERSEORDER>
1
16
19
22
24
11
23
14
17
12
21
9
25
20
6
5
7
4
18
10
13
8
2
3
15

> <PUBCHEM_MMFF94_PARTIAL_CHARGES>
3
1 -0.56
11 0.28
6 0.28

> <PUBCHEM_EFFECTIVE_ROTOR_COUNT>
3.2

> <PUBCHEM_PHARMACOPHORE_FEATURES>
3
1 1 acceptor
3 2 8 9 hydrophobe
6 2 3 4 5 6 7 rings

> <PUBCHEM_HEAVY_ATOM_COUNT>
12

> <PUBCHEM_ATOM_DEF_STEREO_COUNT>
0

> <PUBCHEM_ATOM_UDEF_STEREO_COUNT>
2

> <PUBCHEM_BOND_DEF_STEREO_COUNT>
0

> <PUBCHEM_BOND_UDEF_STEREO_COUNT>
0

> <PUBCHEM_ISOTOPIC_ATOM_COUNT>
0

> <PUBCHEM_COMPONENT_COUNT>
1

> <PUBCHEM_CACTVS_TAUTO_COUNT>
1

> <PUBCHEM_CONFORMER_ID>
0001A0DA00000001

> <PUBCHEM_MMFF94_ENERGY>
28.458

> <PUBCHEM_FEATURE_SELFOVERLAP>
15.223

> <PUBCHEM_SHAPE_FINGERPRINT>
1 1 18048881797058848343
12138202 97 18408597059192615446
12423570 1 17249474545629310909
12716758 59 18341326764567476698
12932764 1 17894344488988150552
13024252 1 14996279232301996709
13380535 76 18342458106071562070
14325111 11 18412547574606857768
14577589 140 18113900438072860108
14817 1 12299868669121867367
15775835 57 18260831458126359392
16945 1 18268447886920247603
18186145 218 18268996393125519044
20510252 161 18272939322904772297
20645464 45 18273220785218120196
20645477 56 18410295813469178536
20871998 184 18129389361236661494
21501502 16 18193563495900986828
21524375 3 18200593575474613153
23235685 24 18340768135209022537
23402539 116 18271799159844121151
23419403 2 17056380447984047419
23552423 10 17972317579926185126
23559900 14 18343585123777287668
241688 4 16032387144126374939
257057 1 17621030297520776583
2748010 2 18265347109432137879
305870 269 18122629348963605049
3071541 12 17548141030352381185
3071541 236 18336815459647711218
4175511 318 18040431075326144932
528862 383 18046347431373003195
5706482 22 18410565159036135434
6333449 129 18412543223662393196
75552 356 18411420643844398164
81228 2 18191866940521156475

> <PUBCHEM_SHAPE_MULTIPOLES>
241.09
5.16
2.35
0.91
7.24
2
0.21
-2.01
-0.3
-1.88
-0.22
-0.53
-0.31
0.04

> <PUBCHEM_SHAPE_SELFOVERLAP>
464.782

> <PUBCHEM_SHAPE_VOLUME>
148.1

> <PUBCHEM_COORDINATE_TYPE>
2
5
10

$$$$
