106735
  -OEChem-11232109033D

 27 27  0     1  0  0  0  0  0999 V2000
    2.5041    1.8375   -0.6509 O   0  0  0  0  0  0  0  0  0  0  0  0
    0.7207   -0.8730    0.6046 C   0  0  1  0  0  0  0  0  0  0  0  0
    0.8272    0.6646    0.6203 C   0  0  2  0  0  0  0  0  0  0  0  0
   -0.2710   -1.3673   -0.4822 C   0  0  2  0  0  0  0  0  0  0  0  0
   -0.5463    1.3154    0.8359 C   0  0  0  0  0  0  0  0  0  0  0  0
   -1.6649    0.6692    0.0573 C   0  0  0  0  0  0  0  0  0  0  0  0
   -1.5233   -0.5240   -0.5446 C   0  0  0  0  0  0  0  0  0  0  0  0
    2.1008   -1.5282    0.4710 C   0  0  0  0  0  0  0  0  0  0  0  0
   -0.6573   -2.8346   -0.2587 C   0  0  0  0  0  0  0  0  0  0  0  0
    1.4583    1.1968   -0.6379 C   0  0  0  0  0  0  0  0  0  0  0  0
   -2.9483    1.4436   -0.0148 C   0  0  0  0  0  0  0  0  0  0  0  0
    0.3258   -1.1708    1.5876 H   0  0  0  0  0  0  0  0  0  0  0  0
    1.4795    0.9702    1.4497 H   0  0  0  0  0  0  0  0  0  0  0  0
    0.2076   -1.3040   -1.4684 H   0  0  0  0  0  0  0  0  0  0  0  0
   -0.4892    2.3794    0.5730 H   0  0  0  0  0  0  0  0  0  0  0  0
   -0.8033    1.2628    1.9017 H   0  0  0  0  0  0  0  0  0  0  0  0
   -2.3516   -0.9222   -1.1268 H   0  0  0  0  0  0  0  0  0  0  0  0
    2.8013   -1.1089    1.2012 H   0  0  0  0  0  0  0  0  0  0  0  0
    2.0476   -2.6050    0.6573 H   0  0  0  0  0  0  0  0  0  0  0  0
    2.5231   -1.3809   -0.5284 H   0  0  0  0  0  0  0  0  0  0  0  0
   -1.1136   -2.9822    0.7266 H   0  0  0  0  0  0  0  0  0  0  0  0
   -1.3768   -3.1720   -1.0137 H   0  0  0  0  0  0  0  0  0  0  0  0
    0.2139   -3.4922   -0.3318 H   0  0  0  0  0  0  0  0  0  0  0  0
    0.9244    0.9950   -1.5817 H   0  0  0  0  0  0  0  0  0  0  0  0
   -3.3377    1.6251    0.9922 H   0  0  0  0  0  0  0  0  0  0  0  0
   -3.7214    0.9123   -0.5797 H   0  0  0  0  0  0  0  0  0  0  0  0
   -2.7828    2.4092   -0.5035 H   0  0  0  0  0  0  0  0  0  0  0  0
  1 10  2  0  0  0  0
  2  3  1  0  0  0  0
  2  4  1  0  0  0  0
  2  8  1  0  0  0  0
  2 12  1  0  0  0  0
  3  5  1  0  0  0  0
  3 10  1  0  0  0  0
  3 13  1  0  0  0  0
  4  7  1  0  0  0  0
  4  9  1  0  0  0  0
  4 14  1  0  0  0  0
  5  6  1  0  0  0  0
  5 15  1  0  0  0  0
  5 16  1  0  0  0  0
  6  7  2  0  0  0  0
  6 11  1  0  0  0  0
  7 17  1  0  0  0  0
  8 18  1  0  0  0  0
  8 19  1  0  0  0  0
  8 20  1  0  0  0  0
  9 21  1  0  0  0  0
  9 22  1  0  0  0  0
  9 23  1  0  0  0  0
 10 24  1  0  0  0  0
 11 25  1  0  0  0  0
 11 26  1  0  0  0  0
 11 27  1  0  0  0  0
M  END
> <PUBCHEM_COMPOUND_CID>
106735

> <PUBCHEM_CONFORMER_RMSD>
0.4

> <PUBCHEM_CONFORMER_DIVERSEORDER>
15
18
2
17
19
12
14
9
1
11
6
5
8
7
16
20
13
4
3
10

> <PUBCHEM_MMFF94_PARTIAL_CHARGES>
10
1 -0.57
10 0.45
11 0.14
17 0.15
24 0.06
3 0.06
4 0.14
5 0.14
6 -0.28
7 -0.29

> <PUBCHEM_EFFECTIVE_ROTOR_COUNT>
1.8

> <PUBCHEM_PHARMACOPHORE_FEATURES>
2
1 1 acceptor
6 2 3 4 5 6 7 rings

> <PUBCHEM_HEAVY_ATOM_COUNT>
11

> <PUBCHEM_ATOM_DEF_STEREO_COUNT>
0

> <PUBCHEM_ATOM_UDEF_STEREO_COUNT>
3

> <PUBCHEM_BOND_DEF_STEREO_COUNT>
0

> <PUBCHEM_BOND_UDEF_STEREO_COUNT>
0

> <PUBCHEM_ISOTOPIC_ATOM_COUNT>
0

> <PUBCHEM_COMPONENT_COUNT>
1

> <PUBCHEM_CACTVS_TAUTO_COUNT>
2

> <PUBCHEM_CONFORMER_ID>
0001A0EF0000000F

> <PUBCHEM_MMFF94_ENERGY>
14.2066

> <PUBCHEM_FEATURE_SELFOVERLAP>
10.148

> <PUBCHEM_SHAPE_FINGERPRINT>
1 1 18338517413516336349
10219947 1 18049718521022772379
10702982 57 18336836389007429356
12423570 1 16465881736612103914
12716758 59 18199754815690786100
13024252 1 7923420977181585284
13380536 305 18267032664883388429
14761567 1 18051951904058994447
14993402 34 18194122919601667294
15219459 52 18338230475209401702
161256 15 17262999663467871283
16945 1 18123743420614683049
18185500 45 17983284937688035675
193761 8 18339073907975896442
20511035 2 18270666615243251611
20653085 51 18043830864169282828
21040471 1 18341602759049950977
23419403 2 14859218790161185673
23552423 10 18409158900880969707
23559900 14 18202007681511422748
241688 4 16898216335709030531
2748010 2 18411696582476408459
5084963 1 18199739263561174035
528862 383 18333732381693084065
53812653 8 18266457788053699349
68250623 7 18261680354054370531

> <PUBCHEM_SHAPE_MULTIPOLES>
220.51
3.14
2.61
0.88
1.5
0.98
0.02
-1.03
0.01
-1.05
-0.52
-0.14
-0.15
-0.57

> <PUBCHEM_SHAPE_SELFOVERLAP>
435.546

> <PUBCHEM_SHAPE_VOLUME>
131.2

> <PUBCHEM_COORDINATE_TYPE>
2
5
10

$$$$
