106787
  -OEChem-11232108463D

 33 33  0     1  0  0  0  0  0999 V2000
   -2.2209    0.1673    0.9531 O   0  0  0  0  0  0  0  0  0  0  0  0
   -3.4830   -1.5878    0.3279 O   0  0  0  0  0  0  0  0  0  0  0  0
   -0.1368    0.8051   -0.2476 C   0  0  1  0  0  0  0  0  0  0  0  0
   -0.6714   -0.0121   -1.4270 C   0  0  0  0  0  0  0  0  0  0  0  0
    0.8215   -0.0257    0.6241 C   0  0  0  0  0  0  0  0  0  0  0  0
    0.6181    2.0373   -0.7701 C   0  0  0  0  0  0  0  0  0  0  0  0
   -1.3524    1.2514    0.5659 C   0  0  0  0  0  0  0  0  0  0  0  0
   -1.5218   -1.1812   -0.9670 C   0  0  0  0  0  0  0  0  0  0  0  0
    2.0350   -0.4711   -0.1787 C   0  0  0  0  0  0  0  0  0  0  0  0
    1.1880    2.8502    0.3717 C   0  0  0  0  0  0  0  0  0  0  0  0
   -2.5089   -0.8650    0.1270 C   0  0  0  0  0  0  0  0  0  0  0  0
    2.9981   -1.2712    0.6981 C   0  0  0  0  0  0  0  0  0  0  0  0
    4.2345   -1.6972   -0.0775 C   0  0  0  0  0  0  0  0  0  0  0  0
    0.3127   -0.9148    1.0167 H   0  0  0  0  0  0  0  0  0  0  0  0
    1.1327    0.5219    1.5210 H   0  0  0  0  0  0  0  0  0  0  0  0
    0.1167   -0.3578   -2.1031 H   0  0  0  0  0  0  0  0  0  0  0  0
   -1.3064    0.6404   -2.0439 H   0  0  0  0  0  0  0  0  0  0  0  0
   -0.0788    2.6777   -1.3282 H   0  0  0  0  0  0  0  0  0  0  0  0
    1.4015    1.7834   -1.4914 H   0  0  0  0  0  0  0  0  0  0  0  0
   -1.0572    1.7298    1.5043 H   0  0  0  0  0  0  0  0  0  0  0  0
   -1.9672    1.9737    0.0153 H   0  0  0  0  0  0  0  0  0  0  0  0
   -0.8847   -1.9973   -0.6091 H   0  0  0  0  0  0  0  0  0  0  0  0
   -2.0856   -1.5597   -1.8277 H   0  0  0  0  0  0  0  0  0  0  0  0
    1.7458   -1.1067   -1.0210 H   0  0  0  0  0  0  0  0  0  0  0  0
    2.5961    0.3769   -0.5799 H   0  0  0  0  0  0  0  0  0  0  0  0
    0.4411    3.1637    1.1040 H   0  0  0  0  0  0  0  0  0  0  0  0
    2.0094    2.3478    0.8892 H   0  0  0  0  0  0  0  0  0  0  0  0
    1.6168    3.7734   -0.0369 H   0  0  0  0  0  0  0  0  0  0  0  0
    2.4940   -2.1625    1.0895 H   0  0  0  0  0  0  0  0  0  0  0  0
    3.3080   -0.6684    1.5599 H   0  0  0  0  0  0  0  0  0  0  0  0
    4.7828   -0.8269   -0.4522 H   0  0  0  0  0  0  0  0  0  0  0  0
    3.9648   -2.3274   -0.9309 H   0  0  0  0  0  0  0  0  0  0  0  0
    4.9077   -2.2700    0.5680 H   0  0  0  0  0  0  0  0  0  0  0  0
  1  7  1  0  0  0  0
  1 11  1  0  0  0  0
  2 11  2  0  0  0  0
  3  4  1  0  0  0  0
  3  5  1  0  0  0  0
  3  6  1  0  0  0  0
  3  7  1  0  0  0  0
  4  8  1  0  0  0  0
  4 16  1  0  0  0  0
  4 17  1  0  0  0  0
  5  9  1  0  0  0  0
  5 14  1  0  0  0  0
  5 15  1  0  0  0  0
  6 10  1  0  0  0  0
  6 18  1  0  0  0  0
  6 19  1  0  0  0  0
  7 20  1  0  0  0  0
  7 21  1  0  0  0  0
  8 11  1  0  0  0  0
  8 22  1  0  0  0  0
  8 23  1  0  0  0  0
  9 12  1  0  0  0  0
  9 24  1  0  0  0  0
  9 25  1  0  0  0  0
 10 26  1  0  0  0  0
 10 27  1  0  0  0  0
 10 28  1  0  0  0  0
 12 13  1  0  0  0  0
 12 29  1  0  0  0  0
 12 30  1  0  0  0  0
 13 31  1  0  0  0  0
 13 32  1  0  0  0  0
 13 33  1  0  0  0  0
M  END
> <PUBCHEM_COMPOUND_CID>
106787

> <PUBCHEM_CONFORMER_RMSD>
0.6

> <PUBCHEM_CONFORMER_DIVERSEORDER>
1
34
18
35
25
2
32
38
26
9
28
20
31
19
36
23
17
5
21
4
3
37
16
12
24
29
6
11
27
22
15
14
8
30
7
33
13
10

> <PUBCHEM_MMFF94_PARTIAL_CHARGES>
5
1 -0.43
11 0.66
2 -0.57
7 0.28
8 0.06

> <PUBCHEM_EFFECTIVE_ROTOR_COUNT>
5

> <PUBCHEM_PHARMACOPHORE_FEATURES>
4
1 10 hydrophobe
1 13 hydrophobe
1 2 acceptor
6 1 3 4 7 8 11 rings

> <PUBCHEM_HEAVY_ATOM_COUNT>
13

> <PUBCHEM_ATOM_DEF_STEREO_COUNT>
0

> <PUBCHEM_ATOM_UDEF_STEREO_COUNT>
1

> <PUBCHEM_BOND_DEF_STEREO_COUNT>
0

> <PUBCHEM_BOND_UDEF_STEREO_COUNT>
0

> <PUBCHEM_ISOTOPIC_ATOM_COUNT>
0

> <PUBCHEM_COMPONENT_COUNT>
1

> <PUBCHEM_CACTVS_TAUTO_COUNT>
1

> <PUBCHEM_CONFORMER_ID>
0001A12300000001

> <PUBCHEM_MMFF94_ENERGY>
28.9881

> <PUBCHEM_FEATURE_SELFOVERLAP>
20.297

> <PUBCHEM_SHAPE_FINGERPRINT>
10989021 7 18410852179184740744
12423570 1 10014202797557407637
13024252 1 16444484363909092132
16945 1 18128831758643883577
17841504 4 18410014381077871305
18186145 218 7853571374596911074
20361792 2 18409157810128068798
20645477 70 18118109506361238879
20653085 51 9583518749965296210
20871998 184 18128814145040973310
20871998 22 18409443704683947784
21061003 4 18409443674498032718
21296965 67 18408037399115401814
22445834 79 18270121347664685713
23402539 116 18128246784620849565
23552423 10 18124033695963747493
2748010 2 18267559387204659180
528862 383 18195244648752296077
598444 67 17119183027079963766
7364860 26 18197218255165954336
81228 2 17979054017129314344

> <PUBCHEM_SHAPE_MULTIPOLES>
255.8
5.15
2.46
1.06
3.36
1.74
-0.2
-4.73
0.9
0.68
0.06
-0.26
0.01
-0.13

> <PUBCHEM_SHAPE_SELFOVERLAP>
500.597

> <PUBCHEM_SHAPE_VOLUME>
152.9

> <PUBCHEM_COORDINATE_TYPE>
2
5
10

$$$$
