106756
  -OEChem-11232108513D

 33 33  0     1  0  0  0  0  0999 V2000
   -1.6289   -0.9162    0.0594 O   0  0  0  0  0  0  0  0  0  0  0  0
   -3.5432   -2.0996    0.5052 O   0  0  0  0  0  0  0  0  0  0  0  0
   -1.3323    0.3226   -0.6030 C   0  0  1  0  0  0  0  0  0  0  0  0
   -2.5813    1.1730   -0.4065 C   0  0  1  0  0  0  0  0  0  0  0  0
   -0.0331    0.8923   -0.0626 C   0  0  0  0  0  0  0  0  0  0  0  0
   -3.6697    0.1132   -0.4778 C   0  0  0  0  0  0  0  0  0  0  0  0
    1.1482   -0.0328   -0.3543 C   0  0  0  0  0  0  0  0  0  0  0  0
    2.4608    0.5607    0.1625 C   0  0  0  0  0  0  0  0  0  0  0  0
   -2.6407    1.9230    0.9264 C   0  0  0  0  0  0  0  0  0  0  0  0
   -2.9848   -1.0945    0.0943 C   0  0  0  0  0  0  0  0  0  0  0  0
    3.6469   -0.3493   -0.1645 C   0  0  0  0  0  0  0  0  0  0  0  0
    4.9896    0.2102    0.3104 C   0  0  0  0  0  0  0  0  0  0  0  0
    6.1684   -0.7026    0.0105 C   0  0  0  0  0  0  0  0  0  0  0  0
   -1.2101    0.0925   -1.6703 H   0  0  0  0  0  0  0  0  0  0  0  0
   -2.6885    1.9070   -1.2129 H   0  0  0  0  0  0  0  0  0  0  0  0
   -0.0952    1.0189    1.0250 H   0  0  0  0  0  0  0  0  0  0  0  0
    0.1503    1.8781   -0.5058 H   0  0  0  0  0  0  0  0  0  0  0  0
   -3.9480   -0.1046   -1.5137 H   0  0  0  0  0  0  0  0  0  0  0  0
   -4.5562    0.3731    0.1061 H   0  0  0  0  0  0  0  0  0  0  0  0
    0.9858   -1.0116    0.1126 H   0  0  0  0  0  0  0  0  0  0  0  0
    1.2244   -0.1995   -1.4358 H   0  0  0  0  0  0  0  0  0  0  0  0
    2.3990    0.7076    1.2475 H   0  0  0  0  0  0  0  0  0  0  0  0
    2.6231    1.5467   -0.2895 H   0  0  0  0  0  0  0  0  0  0  0  0
   -1.8721    2.7012    0.9722 H   0  0  0  0  0  0  0  0  0  0  0  0
   -3.6110    2.4176    1.0446 H   0  0  0  0  0  0  0  0  0  0  0  0
   -2.5003    1.2526    1.7810 H   0  0  0  0  0  0  0  0  0  0  0  0
    3.6920   -0.5116   -1.2487 H   0  0  0  0  0  0  0  0  0  0  0  0
    3.4852   -1.3320    0.2958 H   0  0  0  0  0  0  0  0  0  0  0  0
    5.1652    1.1832   -0.1636 H   0  0  0  0  0  0  0  0  0  0  0  0
    4.9466    0.3869    1.3917 H   0  0  0  0  0  0  0  0  0  0  0  0
    7.0990   -0.2532    0.3706 H   0  0  0  0  0  0  0  0  0  0  0  0
    6.2657   -0.8727   -1.0664 H   0  0  0  0  0  0  0  0  0  0  0  0
    6.0454   -1.6729    0.5019 H   0  0  0  0  0  0  0  0  0  0  0  0
  1  3  1  0  0  0  0
  1 10  1  0  0  0  0
  2 10  2  0  0  0  0
  3  4  1  0  0  0  0
  3  5  1  0  0  0  0
  3 14  1  0  0  0  0
  4  6  1  0  0  0  0
  4  9  1  0  0  0  0
  4 15  1  0  0  0  0
  5  7  1  0  0  0  0
  5 16  1  0  0  0  0
  5 17  1  0  0  0  0
  6 10  1  0  0  0  0
  6 18  1  0  0  0  0
  6 19  1  0  0  0  0
  7  8  1  0  0  0  0
  7 20  1  0  0  0  0
  7 21  1  0  0  0  0
  8 11  1  0  0  0  0
  8 22  1  0  0  0  0
  8 23  1  0  0  0  0
  9 24  1  0  0  0  0
  9 25  1  0  0  0  0
  9 26  1  0  0  0  0
 11 12  1  0  0  0  0
 11 27  1  0  0  0  0
 11 28  1  0  0  0  0
 12 13  1  0  0  0  0
 12 29  1  0  0  0  0
 12 30  1  0  0  0  0
 13 31  1  0  0  0  0
 13 32  1  0  0  0  0
 13 33  1  0  0  0  0
M  END
> <PUBCHEM_COMPOUND_CID>
106756

> <PUBCHEM_CONFORMER_RMSD>
0.6

> <PUBCHEM_CONFORMER_DIVERSEORDER>
29
132
207
10
55
158
190
84
168
212
6
13
14
166
189
65
209
23
196
184
154
2
217
163
183
110
28
143
34
192
86
214
187
119
11
205
176
155
188
8
51
211
76
113
71
182
77
215
1
201
61
169
197
35
165
125
127
206
22
172
216
4
56
104
150
153
5
57
134
194
94
137
151
133
180
3
174
12
171
20
200
26
181
64
173
117
136
156
66
193
178
139
63
141
179
40
105
213
120
17
160
69
115
32
138
177
9
41
45
101
140
90
123
48
204
111
186
92
87
102
42
175
129
68
148
30
81
44
78
203
72
39
112
60
70
38
15
21
142
58
121
210
144
149
46
7
52
43
199
79
147
67
73
50
126
146
97
162
107
74
75
208
16
25
170
88
96
53
198
195
31
161
109
108
159
103
152
36
191
91
33
85
145
106
49
47
164
116
80
157
82
100
167
24
135
93
98
54
19
114
122
89
83
128
124
130
37
185
27
131
62
18
118
59
202
95
99

> <PUBCHEM_MMFF94_PARTIAL_CHARGES>
5
1 -0.43
10 0.66
2 -0.57
3 0.28
6 0.06

> <PUBCHEM_EFFECTIVE_ROTOR_COUNT>
5.8

> <PUBCHEM_PHARMACOPHORE_FEATURES>
4
1 13 hydrophobe
1 2 acceptor
5 1 3 4 6 10 rings
5 5 7 8 11 12 hydrophobe

> <PUBCHEM_HEAVY_ATOM_COUNT>
13

> <PUBCHEM_ATOM_DEF_STEREO_COUNT>
0

> <PUBCHEM_ATOM_UDEF_STEREO_COUNT>
2

> <PUBCHEM_BOND_DEF_STEREO_COUNT>
0

> <PUBCHEM_BOND_UDEF_STEREO_COUNT>
0

> <PUBCHEM_ISOTOPIC_ATOM_COUNT>
0

> <PUBCHEM_COMPONENT_COUNT>
1

> <PUBCHEM_CACTVS_TAUTO_COUNT>
2

> <PUBCHEM_CONFORMER_ID>
0001A1040000001D

> <PUBCHEM_MMFF94_ENERGY>
8.0636

> <PUBCHEM_FEATURE_SELFOVERLAP>
20.297

> <PUBCHEM_SHAPE_FINGERPRINT>
10680689 15 17531247227750123948
10912923 1 18040435486869448312
11046707 91 18259701220276057070
11315181 36 18408323289814507912
12091667 2 16660363654613797052
124424 183 18060413599491252360
12757275 245 18261111910705954107
12916754 54 18187648054196768508
13024252 1 14201116800209510693
13167823 11 18334290960108549138
13214271 11 18201717331976543068
13288520 33 18260830405685240142
13675066 3 17846776308993163124
14252887 29 17203334390847262742
17834072 33 18114185272188847716
17844677 252 18060142046622270680
1986462 14 18408041810183965052
200 152 18060409240536952949
20279233 1 17775288253013884148
20645477 56 18261389980169426557
20645477 70 16772954680195229060
20828058 44 18410573972820437252
22485316 2 18186515480432603778
2306618 200 18412830157701306201
23380061 127 18412544310030760172
23402539 116 18201992231891047645
23532345 12 18261115192604079620
23559900 14 18337943601496054648
4214541 1 18410292489143269044
5104073 3 18342172259466822400
573450 72 18188198828334312336
77779 3 18410292515145083956
90127 26 17561081398075880464

> <PUBCHEM_SHAPE_MULTIPOLES>
255.8
11.24
1.55
0.77
18.65
0.17
-0.02
2.53
-0.79
-2.15
-0.4
-0.31
-0.11
0.14

> <PUBCHEM_SHAPE_SELFOVERLAP>
493.325

> <PUBCHEM_SHAPE_VOLUME>
158

> <PUBCHEM_COORDINATE_TYPE>
2
5
10

$$$$
