106739
  -OEChem-11232109453D

 34 34  0     1  0  0  0  0  0999 V2000
   -0.1777    1.6679    1.1394 O   0  0  0  0  0  0  0  0  0  0  0  0
   -0.4134   -0.0729   -0.5367 C   0  0  2  0  0  0  0  0  0  0  0  0
   -1.8380   -0.3839   -0.0732 C   0  0  0  0  0  0  0  0  0  0  0  0
    0.5807   -1.0473    0.1170 C   0  0  0  0  0  0  0  0  0  0  0  0
   -0.0301    1.3897   -0.2522 C   0  0  2  0  0  0  0  0  0  0  0  0
    2.0253   -0.7569   -0.3157 C   0  0  1  0  0  0  0  0  0  0  0  0
    1.4122    1.6757   -0.6754 C   0  0  0  0  0  0  0  0  0  0  0  0
    2.4023    0.7029   -0.0337 C   0  0  0  0  0  0  0  0  0  0  0  0
   -2.4599   -1.4485   -0.9913 C   0  0  0  0  0  0  0  0  0  0  0  0
   -1.8087   -0.9128    1.3700 C   0  0  0  0  0  0  0  0  0  0  0  0
   -2.6904    0.8941   -0.1281 C   0  0  0  0  0  0  0  0  0  0  0  0
    2.9977   -1.7080    0.3800 C   0  0  0  0  0  0  0  0  0  0  0  0
   -0.3490   -0.2052   -1.6264 H   0  0  0  0  0  0  0  0  0  0  0  0
    0.3337   -2.0820   -0.1500 H   0  0  0  0  0  0  0  0  0  0  0  0
    0.5779   -0.9736    1.2100 H   0  0  0  0  0  0  0  0  0  0  0  0
   -0.6581    2.0926   -0.8088 H   0  0  0  0  0  0  0  0  0  0  0  0
    2.1021   -0.9303   -1.3975 H   0  0  0  0  0  0  0  0  0  0  0  0
    1.6922    2.6963   -0.3889 H   0  0  0  0  0  0  0  0  0  0  0  0
    1.4944    1.6077   -1.7670 H   0  0  0  0  0  0  0  0  0  0  0  0
    3.4083    0.9088   -0.4186 H   0  0  0  0  0  0  0  0  0  0  0  0
    2.4380    0.8787    1.0491 H   0  0  0  0  0  0  0  0  0  0  0  0
   -1.8741   -2.3739   -0.9934 H   0  0  0  0  0  0  0  0  0  0  0  0
   -3.4752   -1.7039   -0.6669 H   0  0  0  0  0  0  0  0  0  0  0  0
   -2.5248   -1.0917   -2.0256 H   0  0  0  0  0  0  0  0  0  0  0  0
   -1.3056   -0.2476    2.0767 H   0  0  0  0  0  0  0  0  0  0  0  0
   -1.3851   -1.9198    1.4526 H   0  0  0  0  0  0  0  0  0  0  0  0
   -2.8384   -1.0098    1.7405 H   0  0  0  0  0  0  0  0  0  0  0  0
   -2.6656    1.3618   -1.1190 H   0  0  0  0  0  0  0  0  0  0  0  0
   -3.7434    0.6364    0.0494 H   0  0  0  0  0  0  0  0  0  0  0  0
   -2.4554    1.6367    0.6380 H   0  0  0  0  0  0  0  0  0  0  0  0
    4.0240   -1.5276    0.0432 H   0  0  0  0  0  0  0  0  0  0  0  0
    2.9716   -1.5814    1.4677 H   0  0  0  0  0  0  0  0  0  0  0  0
    2.7498   -2.7505    0.1543 H   0  0  0  0  0  0  0  0  0  0  0  0
    0.0669    2.5982    1.2807 H   0  0  0  0  0  0  0  0  0  0  0  0
  1  5  1  0  0  0  0
  1 34  1  0  0  0  0
  2  3  1  0  0  0  0
  2  4  1  0  0  0  0
  2  5  1  0  0  0  0
  2 13  1  0  0  0  0
  3  9  1  0  0  0  0
  3 10  1  0  0  0  0
  3 11  1  0  0  0  0
  4  6  1  0  0  0  0
  4 14  1  0  0  0  0
  4 15  1  0  0  0  0
  5  7  1  0  0  0  0
  5 16  1  0  0  0  0
  6  8  1  0  0  0  0
  6 12  1  0  0  0  0
  6 17  1  0  0  0  0
  7  8  1  0  0  0  0
  7 18  1  0  0  0  0
  7 19  1  0  0  0  0
  8 20  1  0  0  0  0
  8 21  1  0  0  0  0
  9 22  1  0  0  0  0
  9 23  1  0  0  0  0
  9 24  1  0  0  0  0
 10 25  1  0  0  0  0
 10 26  1  0  0  0  0
 10 27  1  0  0  0  0
 11 28  1  0  0  0  0
 11 29  1  0  0  0  0
 11 30  1  0  0  0  0
 12 31  1  0  0  0  0
 12 32  1  0  0  0  0
 12 33  1  0  0  0  0
M  END
> <PUBCHEM_COMPOUND_CID>
106739

> <PUBCHEM_CONFORMER_RMSD>
0.6

> <PUBCHEM_CONFORMER_DIVERSEORDER>
3
5
9
4
7
6
8
1
2

> <PUBCHEM_MMFF94_PARTIAL_CHARGES>
3
1 -0.68
34 0.4
5 0.28

> <PUBCHEM_EFFECTIVE_ROTOR_COUNT>
2.2

> <PUBCHEM_PHARMACOPHORE_FEATURES>
4
1 1 acceptor
1 1 donor
4 3 9 10 11 hydrophobe
6 2 4 5 6 7 8 rings

> <PUBCHEM_HEAVY_ATOM_COUNT>
12

> <PUBCHEM_ATOM_DEF_STEREO_COUNT>
0

> <PUBCHEM_ATOM_UDEF_STEREO_COUNT>
3

> <PUBCHEM_BOND_DEF_STEREO_COUNT>
0

> <PUBCHEM_BOND_UDEF_STEREO_COUNT>
0

> <PUBCHEM_ISOTOPIC_ATOM_COUNT>
0

> <PUBCHEM_COMPONENT_COUNT>
1

> <PUBCHEM_CACTVS_TAUTO_COUNT>
1

> <PUBCHEM_CONFORMER_ID>
0001A0F300000003

> <PUBCHEM_MMFF94_ENERGY>
39.913

> <PUBCHEM_FEATURE_SELFOVERLAP>
20.297

> <PUBCHEM_SHAPE_FINGERPRINT>
10130415 120 18335701581227482656
12138202 97 17025141084686662955
12423570 1 12726061473490967633
12524768 44 18268718207624323631
12932764 1 18201166558339600277
13024252 1 16300094293620678026
14128692 85 18411698794331825126
14817 1 11191558388169677472
15775835 57 18128827528106345869
16945 1 18118409676765482516
17990270 104 18261392286376375450
18511873 20 18337952264692646605
20201158 50 18187642539622147650
20711985 344 17752188510088947316
21501502 16 18409730698772800653
23419403 2 17619854683652195936
23552423 10 18335423516502303844
241688 4 18190460450743647008
25610 171 15267076855853643763
2748010 2 18408604760026558164
29004967 10 18187933931625512768
3248919 1 17822288049721185068
369184 2 18342739619760773143
5084963 1 17842000180336558581
528886 8 18259983790337721741
63268167 104 18341333387164395377
8030462 33 18336271257178830501
81228 2 17903361407637649464

> <PUBCHEM_SHAPE_MULTIPOLES>
241.09
4.14
1.95
1.02
0.42
0.23
0.18
-1.39
-0.17
0.57
0.04
-0.45
-0.1
-0.33

> <PUBCHEM_SHAPE_SELFOVERLAP>
474.238

> <PUBCHEM_SHAPE_VOLUME>
145.2

> <PUBCHEM_COORDINATE_TYPE>
2
5
10

$$$$
