106725
  -OEChem-11232109233D

 41 43  0     1  0  0  0  0  0999 V2000
    1.8433    0.9985   -0.5489 O   0  0  0  0  0  0  0  0  0  0  0  0
    1.8756   -0.8152    0.9646 O   0  0  0  0  0  0  0  0  0  0  0  0
   -0.9496    0.1351   -1.4273 C   0  0  1  0  0  0  0  0  0  0  0  0
   -2.1930   -1.4456   -0.4460 C   0  0  1  0  0  0  0  0  0  0  0  0
   -2.8745   -0.1419    0.0265 C   0  0  2  0  0  0  0  0  0  0  0  0
   -1.9949    0.9522   -0.6286 C   0  0  1  0  0  0  0  0  0  0  0  0
    0.0837   -0.6465   -0.5831 C   0  0  2  0  0  0  0  0  0  0  0  0
   -1.8274   -1.0469   -1.8846 C   0  0  0  0  0  0  0  0  0  0  0  0
   -0.7977   -1.6488    0.1848 C   0  0  0  0  0  0  0  0  0  0  0  0
   -2.9413    0.1631    1.5232 C   0  0  0  0  0  0  0  0  0  0  0  0
   -1.5795    1.8082    0.5134 C   0  0  0  0  0  0  0  0  0  0  0  0
    1.0524    0.1409    0.2806 C   0  0  0  0  0  0  0  0  0  0  0  0
   -2.0959    1.3860    1.6722 C   0  0  0  0  0  0  0  0  0  0  0  0
    2.7797    1.7734    0.1875 C   0  0  0  0  0  0  0  0  0  0  0  0
    2.6089   -1.6403    0.0688 C   0  0  0  0  0  0  0  0  0  0  0  0
    3.5637    2.6426   -0.7724 C   0  0  0  0  0  0  0  0  0  0  0  0
    3.4463   -2.6148    0.8694 C   0  0  0  0  0  0  0  0  0  0  0  0
   -0.4978    0.7002   -2.2468 H   0  0  0  0  0  0  0  0  0  0  0  0
   -2.8387   -2.3220   -0.3579 H   0  0  0  0  0  0  0  0  0  0  0  0
   -3.8880   -0.1035   -0.3972 H   0  0  0  0  0  0  0  0  0  0  0  0
   -2.6037    1.5460   -1.3228 H   0  0  0  0  0  0  0  0  0  0  0  0
    0.6460   -1.1864   -1.3543 H   0  0  0  0  0  0  0  0  0  0  0  0
   -1.2761   -1.8258   -2.4227 H   0  0  0  0  0  0  0  0  0  0  0  0
   -2.6905   -0.7395   -2.4855 H   0  0  0  0  0  0  0  0  0  0  0  0
   -0.7877   -1.4955    1.2663 H   0  0  0  0  0  0  0  0  0  0  0  0
   -0.4450   -2.6697   -0.0038 H   0  0  0  0  0  0  0  0  0  0  0  0
   -2.5887   -0.6587    2.1508 H   0  0  0  0  0  0  0  0  0  0  0  0
   -3.9703    0.3921    1.8217 H   0  0  0  0  0  0  0  0  0  0  0  0
   -0.9474    2.6790    0.4132 H   0  0  0  0  0  0  0  0  0  0  0  0
    0.5646    0.7272    1.0571 H   0  0  0  0  0  0  0  0  0  0  0  0
   -1.9232    1.8742    2.6208 H   0  0  0  0  0  0  0  0  0  0  0  0
    2.2464    2.4060    0.9057 H   0  0  0  0  0  0  0  0  0  0  0  0
    3.4716    1.1249    0.7350 H   0  0  0  0  0  0  0  0  0  0  0  0
    1.9669   -2.2713   -0.5476 H   0  0  0  0  0  0  0  0  0  0  0  0
    3.2627   -1.0433   -0.5748 H   0  0  0  0  0  0  0  0  0  0  0  0
    4.2913    3.2590   -0.2371 H   0  0  0  0  0  0  0  0  0  0  0  0
    4.0943    2.0255   -1.5050 H   0  0  0  0  0  0  0  0  0  0  0  0
    2.8915    3.2983   -1.3358 H   0  0  0  0  0  0  0  0  0  0  0  0
    4.0234   -3.2706    0.2112 H   0  0  0  0  0  0  0  0  0  0  0  0
    4.1390   -2.0771    1.5253 H   0  0  0  0  0  0  0  0  0  0  0  0
    2.8114   -3.2315    1.5145 H   0  0  0  0  0  0  0  0  0  0  0  0
  1 12  1  0  0  0  0
  1 14  1  0  0  0  0
  2 12  1  0  0  0  0
  2 15  1  0  0  0  0
  3  6  1  0  0  0  0
  3  7  1  0  0  0  0
  3  8  1  0  0  0  0
  3 18  1  0  0  0  0
  4  5  1  0  0  0  0
  4  8  1  0  0  0  0
  4  9  1  0  0  0  0
  4 19  1  0  0  0  0
  5  6  1  0  0  0  0
  5 10  1  0  0  0  0
  5 20  1  0  0  0  0
  6 11  1  0  0  0  0
  6 21  1  0  0  0  0
  7  9  1  0  0  0  0
  7 12  1  0  0  0  0
  7 22  1  0  0  0  0
  8 23  1  0  0  0  0
  8 24  1  0  0  0  0
  9 25  1  0  0  0  0
  9 26  1  0  0  0  0
 10 13  1  0  0  0  0
 10 27  1  0  0  0  0
 10 28  1  0  0  0  0
 11 13  2  0  0  0  0
 11 29  1  0  0  0  0
 12 30  1  0  0  0  0
 13 31  1  0  0  0  0
 14 16  1  0  0  0  0
 14 32  1  0  0  0  0
 14 33  1  0  0  0  0
 15 17  1  0  0  0  0
 15 34  1  0  0  0  0
 15 35  1  0  0  0  0
 16 36  1  0  0  0  0
 16 37  1  0  0  0  0
 16 38  1  0  0  0  0
 17 39  1  0  0  0  0
 17 40  1  0  0  0  0
 17 41  1  0  0  0  0
M  END
> <PUBCHEM_COMPOUND_CID>
106725

> <PUBCHEM_CONFORMER_RMSD>
0.8

> <PUBCHEM_CONFORMER_DIVERSEORDER>
1
4
9
10
6
11
12
3
13
14
8
5
7
2

> <PUBCHEM_MMFF94_PARTIAL_CHARGES>
11
1 -0.56
10 0.14
11 -0.29
12 0.56
13 -0.29
14 0.28
15 0.28
2 -0.56
29 0.15
31 0.15
6 0.14

> <PUBCHEM_EFFECTIVE_ROTOR_COUNT>
5.8

> <PUBCHEM_PHARMACOPHORE_FEATURES>
4
1 1 acceptor
1 2 acceptor
5 5 6 10 11 13 rings
7 3 4 5 6 7 8 9 rings

> <PUBCHEM_HEAVY_ATOM_COUNT>
17

> <PUBCHEM_ATOM_DEF_STEREO_COUNT>
0

> <PUBCHEM_ATOM_UDEF_STEREO_COUNT>
5

> <PUBCHEM_BOND_DEF_STEREO_COUNT>
0

> <PUBCHEM_BOND_UDEF_STEREO_COUNT>
0

> <PUBCHEM_ISOTOPIC_ATOM_COUNT>
0

> <PUBCHEM_COMPONENT_COUNT>
1

> <PUBCHEM_CACTVS_TAUTO_COUNT>
1

> <PUBCHEM_CONFORMER_ID>
0001A0E500000001

> <PUBCHEM_MMFF94_ENERGY>
63.1015

> <PUBCHEM_FEATURE_SELFOVERLAP>
20.483

> <PUBCHEM_SHAPE_FINGERPRINT>
10863032 1 18335987536419501033
12202030 40 16298670490645525506
12423570 1 15534420544368069191
12553582 1 18119804704235933426
12633257 1 17977413567318560105
12808571 1 17774740704702597901
13024252 1 13263216948849753517
14617773 55 18201990054047131743
14787075 74 17620482745246202759
15076042 46 18272654515334035323
15309172 13 17897728905937361196
15775835 57 18271536371985590369
16945 1 18126577729932095439
17357990 137 17844825706065886680
1813 80 18124601882099896950
19868273 325 17487614354315871477
20510252 161 17544761587286548856
21061003 4 17897729756066579138
21501502 16 18343301482950481030
21524375 3 17559114259983255129
23236772 104 18197505223442740337
23557571 272 14979660135422720247
23566358 27 18335717069312393382
23598291 2 18343869892134175492
2748010 2 17603852391183894806
312423 11 18272652367703097278
3286 77 17896334535892806227
4175511 71 18121788227290455010
45790113 50 18410855451802263807
474 4 18190746517167322412
6049 1 17385440982037101902
6992083 37 18055904399363573966
7097593 13 18269272374665140650
7364860 26 18410005551157893094
74978 22 18337102376400759294
7615 1 18201987837764853190
90316 7 17687446989476950074

> <PUBCHEM_SHAPE_MULTIPOLES>
338.11
5.63
2.64
1.47
3.79
0.2
-0.06
0.58
0.88
2.88
0.2
-0.88
0.01
-1.69

> <PUBCHEM_SHAPE_SELFOVERLAP>
710.69

> <PUBCHEM_SHAPE_VOLUME>
197.6

> <PUBCHEM_COORDINATE_TYPE>
2
5
10

$$$$
