106826
  -OEChem-11232109073D

 61 64  0     1  0  0  0  0  0999 V2000
   -5.4276   -0.6328    2.2603 O   0  0  0  0  0  0  0  0  0  0  0  0
    1.6657   -1.0862   -0.6116 N   0  0  0  0  0  0  0  0  0  0  0  0
    1.0107    1.1952   -1.1194 N   0  0  0  0  0  0  0  0  0  0  0  0
   -0.9399   -2.1059   -1.9482 C   0  0  1  0  0  0  0  0  0  0  0  0
    0.5479   -0.1996   -0.9707 C   0  0  0  0  0  0  0  0  0  0  0  0
   -0.3276   -0.7001   -2.1499 C   0  0  0  0  0  0  0  0  0  0  0  0
   -1.7690   -2.1690   -0.6451 C   0  0  0  0  0  0  0  0  0  0  0  0
   -2.9976   -1.2511   -0.6033 C   0  0  0  0  0  0  0  0  0  0  0  0
   -3.7073   -1.3518    0.7516 C   0  0  0  0  0  0  0  0  0  0  0  0
   -1.7618   -2.5609   -3.1572 C   0  0  0  0  0  0  0  0  0  0  0  0
   -4.9208   -0.4178    0.9360 C   0  0  0  0  0  0  0  0  0  0  0  0
    2.1422   -1.2612    0.6533 C   0  0  0  0  0  0  0  0  0  0  0  0
    0.6451    2.2192   -0.3033 C   0  0  0  0  0  0  0  0  0  0  0  0
    2.3478   -1.8320   -1.5152 C   0  0  0  0  0  0  0  0  0  0  0  0
    1.8558    1.5956   -2.0963 C   0  0  0  0  0  0  0  0  0  0  0  0
    3.1934   -2.1751    0.5528 C   0  0  0  0  0  0  0  0  0  0  0  0
    1.2995    3.3534   -0.7886 C   0  0  0  0  0  0  0  0  0  0  0  0
    3.3116   -2.5262   -0.8210 C   0  0  0  0  0  0  0  0  0  0  0  0
    2.0596    2.9448   -1.9201 C   0  0  0  0  0  0  0  0  0  0  0  0
   -6.0518   -0.7253   -0.0476 C   0  0  0  0  0  0  0  0  0  0  0  0
   -4.5330    1.0590    0.8527 C   0  0  0  0  0  0  0  0  0  0  0  0
    1.7434   -0.6994    1.8714 C   0  0  0  0  0  0  0  0  0  0  0  0
   -0.1976    2.2535    0.8134 C   0  0  0  0  0  0  0  0  0  0  0  0
    3.8818   -2.5482    1.7243 C   0  0  0  0  0  0  0  0  0  0  0  0
    1.1051    4.5831   -0.1288 C   0  0  0  0  0  0  0  0  0  0  0  0
    2.4413   -1.0840    3.0198 C   0  0  0  0  0  0  0  0  0  0  0  0
   -0.3757    3.4843    1.4515 C   0  0  0  0  0  0  0  0  0  0  0  0
    3.4943   -1.9940    2.9497 C   0  0  0  0  0  0  0  0  0  0  0  0
    0.2646    4.6325    0.9894 C   0  0  0  0  0  0  0  0  0  0  0  0
   -0.1308   -2.8371   -1.8406 H   0  0  0  0  0  0  0  0  0  0  0  0
   -0.1012   -0.1972   -0.0944 H   0  0  0  0  0  0  0  0  0  0  0  0
   -1.1267    0.0299   -2.3321 H   0  0  0  0  0  0  0  0  0  0  0  0
    0.2582   -0.7034   -3.0783 H   0  0  0  0  0  0  0  0  0  0  0  0
   -2.1181   -3.2037   -0.5217 H   0  0  0  0  0  0  0  0  0  0  0  0
   -1.1316   -1.9874    0.2265 H   0  0  0  0  0  0  0  0  0  0  0  0
   -3.6923   -1.5246   -1.4032 H   0  0  0  0  0  0  0  0  0  0  0  0
   -2.6878   -0.2163   -0.7711 H   0  0  0  0  0  0  0  0  0  0  0  0
   -4.0288   -2.3891    0.9173 H   0  0  0  0  0  0  0  0  0  0  0  0
   -2.9823   -1.1493    1.5522 H   0  0  0  0  0  0  0  0  0  0  0  0
   -2.2165   -3.5406   -2.9778 H   0  0  0  0  0  0  0  0  0  0  0  0
   -2.5580   -1.8494   -3.3971 H   0  0  0  0  0  0  0  0  0  0  0  0
   -1.1204   -2.6466   -4.0409 H   0  0  0  0  0  0  0  0  0  0  0  0
    2.1334   -1.8215   -2.5746 H   0  0  0  0  0  0  0  0  0  0  0  0
    2.2493    0.9183   -2.8421 H   0  0  0  0  0  0  0  0  0  0  0  0
    4.0271   -3.2100   -1.2567 H   0  0  0  0  0  0  0  0  0  0  0  0
    2.6877    3.5698   -2.5400 H   0  0  0  0  0  0  0  0  0  0  0  0
   -6.9463   -0.1400    0.1952 H   0  0  0  0  0  0  0  0  0  0  0  0
   -5.7707   -0.5054   -1.0819 H   0  0  0  0  0  0  0  0  0  0  0  0
   -6.3460   -1.7789    0.0178 H   0  0  0  0  0  0  0  0  0  0  0  0
   -5.3729    1.6979    1.1501 H   0  0  0  0  0  0  0  0  0  0  0  0
   -4.2279    1.3504   -0.1569 H   0  0  0  0  0  0  0  0  0  0  0  0
   -3.7124    1.2885    1.5421 H   0  0  0  0  0  0  0  0  0  0  0  0
    0.9192   -0.0059    1.9530 H   0  0  0  0  0  0  0  0  0  0  0  0
   -0.7281    1.3814    1.1775 H   0  0  0  0  0  0  0  0  0  0  0  0
    4.7043   -3.2566    1.6842 H   0  0  0  0  0  0  0  0  0  0  0  0
    1.5978    5.4858   -0.4785 H   0  0  0  0  0  0  0  0  0  0  0  0
   -4.7206   -0.4178    2.8926 H   0  0  0  0  0  0  0  0  0  0  0  0
    2.1544   -0.6692    3.9828 H   0  0  0  0  0  0  0  0  0  0  0  0
   -1.0293    3.5467    2.3179 H   0  0  0  0  0  0  0  0  0  0  0  0
    4.0211   -2.2787    3.8567 H   0  0  0  0  0  0  0  0  0  0  0  0
    0.1093    5.5785    1.5013 H   0  0  0  0  0  0  0  0  0  0  0  0
  1 11  1  0  0  0  0
  1 57  1  0  0  0  0
  2  5  1  0  0  0  0
  2 12  1  0  0  0  0
  2 14  1  0  0  0  0
  3  5  1  0  0  0  0
  3 13  1  0  0  0  0
  3 15  1  0  0  0  0
  4  6  1  0  0  0  0
  4  7  1  0  0  0  0
  4 10  1  0  0  0  0
  4 30  1  0  0  0  0
  5  6  1  0  0  0  0
  5 31  1  0  0  0  0
  6 32  1  0  0  0  0
  6 33  1  0  0  0  0
  7  8  1  0  0  0  0
  7 34  1  0  0  0  0
  7 35  1  0  0  0  0
  8  9  1  0  0  0  0
  8 36  1  0  0  0  0
  8 37  1  0  0  0  0
  9 11  1  0  0  0  0
  9 38  1  0  0  0  0
  9 39  1  0  0  0  0
 10 40  1  0  0  0  0
 10 41  1  0  0  0  0
 10 42  1  0  0  0  0
 11 20  1  0  0  0  0
 11 21  1  0  0  0  0
 12 16  1  0  0  0  0
 12 22  2  0  0  0  0
 13 17  1  0  0  0  0
 13 23  2  0  0  0  0
 14 18  2  0  0  0  0
 14 43  1  0  0  0  0
 15 19  2  0  0  0  0
 15 44  1  0  0  0  0
 16 18  1  0  0  0  0
 16 24  2  0  0  0  0
 17 19  1  0  0  0  0
 17 25  2  0  0  0  0
 18 45  1  0  0  0  0
 19 46  1  0  0  0  0
 20 47  1  0  0  0  0
 20 48  1  0  0  0  0
 20 49  1  0  0  0  0
 21 50  1  0  0  0  0
 21 51  1  0  0  0  0
 21 52  1  0  0  0  0
 22 26  1  0  0  0  0
 22 53  1  0  0  0  0
 23 27  1  0  0  0  0
 23 54  1  0  0  0  0
 24 28  1  0  0  0  0
 24 55  1  0  0  0  0
 25 29  1  0  0  0  0
 25 56  1  0  0  0  0
 26 28  2  0  0  0  0
 26 58  1  0  0  0  0
 27 29  2  0  0  0  0
 27 59  1  0  0  0  0
 28 60  1  0  0  0  0
 29 61  1  0  0  0  0
M  END
> <PUBCHEM_COMPOUND_CID>
106826

> <PUBCHEM_CONFORMER_RMSD>
1

> <PUBCHEM_CONFORMER_DIVERSEORDER>
1
51
40
86
133
92
88
126
140
64
63
161
25
129
90
151
114
128
79
89
83
96
150
149
124
45
62
70
59
131
123
162
125
73
97
118
119
117
36
57
143
135
111
55
148
80
60
137
113
130
152
156
147
71
69
108
121
154
155
78
101
122
104
61
27
139
94
138
85
42
35
14
160
47
4
48
141
157
30
52
84
76
43
102
67
81
75
105
144
65
134
58
110
49
107
146
158
120
159
99
44
95
153
50
132
103
136
74
54
72
32
127
31
66
98
112
17
13
77
93
11
145
15
39
56
109
37
46
28
91
106
12
142
33
82
87
3
26
16
7
68
115
34
116
19
53
21
29
8
100
24
6
38
22
20
5
18
23
9
2
10
41

> <PUBCHEM_MMFF94_PARTIAL_CHARGES>
32
1 -0.68
11 0.28
12 -0.15
13 -0.15
14 -0.3
15 -0.3
18 -0.15
19 -0.15
2 0.05
22 -0.15
23 -0.15
24 -0.15
25 -0.15
26 -0.15
27 -0.15
28 -0.15
29 -0.15
3 0.05
43 0.15
44 0.15
45 0.15
46 0.15
5 0.51
53 0.15
54 0.15
55 0.15
56 0.15
57 0.4
58 0.15
59 0.15
60 0.15
61 0.15

> <PUBCHEM_EFFECTIVE_ROTOR_COUNT>
8

> <PUBCHEM_PHARMACOPHORE_FEATURES>
11
1 1 acceptor
1 1 donor
1 10 hydrophobe
1 2 cation
1 3 cation
3 11 20 21 hydrophobe
5 2 12 14 16 18 rings
5 3 13 15 17 19 rings
5 4 6 7 8 9 hydrophobe
6 12 16 22 24 26 28 rings
6 13 17 23 25 27 29 rings

> <PUBCHEM_HEAVY_ATOM_COUNT>
29

> <PUBCHEM_ATOM_DEF_STEREO_COUNT>
0

> <PUBCHEM_ATOM_UDEF_STEREO_COUNT>
1

> <PUBCHEM_BOND_DEF_STEREO_COUNT>
0

> <PUBCHEM_BOND_UDEF_STEREO_COUNT>
0

> <PUBCHEM_ISOTOPIC_ATOM_COUNT>
0

> <PUBCHEM_COMPONENT_COUNT>
1

> <PUBCHEM_CACTVS_TAUTO_COUNT>
1

> <PUBCHEM_CONFORMER_ID>
0001A14A00000001

> <PUBCHEM_MMFF94_ENERGY>
61.0408

> <PUBCHEM_FEATURE_SELFOVERLAP>
56.055

> <PUBCHEM_SHAPE_FINGERPRINT>
10074138 170 17613419057247569408
12160290 23 17616221729883053462
12549972 3 17097459138790164047
12788726 201 18190192182643905818
12977781 61 16304807037029778243
13135754 10 17686050605045903290
133893 2 17756111794962316158
13583140 156 18120105120097287219
14251757 17 12974468586467189849
14955137 171 18339929324244030886
17974551 9 17894639166878828947
18681886 176 17916607430122651173
19319366 153 18046643453398956573
19734167 9 17410504186172872641
20600515 1 18046314519196954166
21033648 29 17702935925567519891
21344244 78 18341889688962078227
24893989 43 15311071468714338448
3027735 51 8850663378144576147
3380486 145 17909506711058396518
345986 75 17896593986193093491
35225 105 17402850507269706370
44802255 64 12461295951703684712
484985 159 16304558194934625258
5895379 119 17915765127275667329
6786 2 17173509248458372742
7288768 16 17184188886361415165
81228 2 17906705048341432142
8509985 295 18410859846023143511
9981440 41 16043091590077140116

> <PUBCHEM_SHAPE_MULTIPOLES>
580.98
8.2
5.53
3
14.3
8.07
-0.25
-6.83
-5.43
-3.48
0.38
-1.28
-1.64
-2.66

> <PUBCHEM_SHAPE_SELFOVERLAP>
1248.456

> <PUBCHEM_SHAPE_VOLUME>
323.5

> <PUBCHEM_COORDINATE_TYPE>
2
5
10

$$$$
