106823
  -OEChem-11232108593D

 32 31  0     1  0  0  0  0  0999 V2000
    4.2482   -0.8666    0.4070 O   0  0  0  0  0  0  0  0  0  0  0  0
    2.1639    1.2057   -1.3911 O   0  0  0  0  0  0  0  0  0  0  0  0
    0.5216   -1.0011   -0.1552 C   0  0  0  0  0  0  0  0  0  0  0  0
   -0.6568   -0.1299    0.2959 C   0  0  0  0  0  0  0  0  0  0  0  0
    1.8723   -0.4588    0.3397 C   0  0  1  0  0  0  0  0  0  0  0  0
   -2.0137   -0.6372   -0.2029 C   0  0  0  0  0  0  0  0  0  0  0  0
   -3.2386    0.1387    0.2912 C   0  0  0  0  0  0  0  0  0  0  0  0
    3.0223   -1.3546   -0.1257 C   0  0  0  0  0  0  0  0  0  0  0  0
   -4.5587   -0.3783   -0.2812 C   0  0  0  0  0  0  0  0  0  0  0  0
    2.1028    0.9570   -0.1870 C   0  0  0  0  0  0  0  0  0  0  0  0
   -5.7318    0.4796    0.1680 C   0  0  0  0  0  0  0  0  0  0  0  0
    2.2685    2.0455    0.8414 C   0  0  0  0  0  0  0  0  0  0  0  0
    0.3802   -2.0222    0.2199 H   0  0  0  0  0  0  0  0  0  0  0  0
    0.5212   -1.0604   -1.2511 H   0  0  0  0  0  0  0  0  0  0  0  0
   -0.5290    0.8988   -0.0597 H   0  0  0  0  0  0  0  0  0  0  0  0
   -0.6720   -0.0877    1.3919 H   0  0  0  0  0  0  0  0  0  0  0  0
    1.8744   -0.4156    1.4360 H   0  0  0  0  0  0  0  0  0  0  0  0
   -2.1273   -1.6877    0.0938 H   0  0  0  0  0  0  0  0  0  0  0  0
   -2.0069   -0.6258   -1.3003 H   0  0  0  0  0  0  0  0  0  0  0  0
   -3.2736    0.0948    1.3867 H   0  0  0  0  0  0  0  0  0  0  0  0
   -3.1166    1.1951    0.0213 H   0  0  0  0  0  0  0  0  0  0  0  0
    2.8850   -2.3776    0.2385 H   0  0  0  0  0  0  0  0  0  0  0  0
    3.1079   -1.3890   -1.2172 H   0  0  0  0  0  0  0  0  0  0  0  0
   -4.5142   -0.3786   -1.3764 H   0  0  0  0  0  0  0  0  0  0  0  0
   -4.7206   -1.4143    0.0377 H   0  0  0  0  0  0  0  0  0  0  0  0
   -5.6135    1.5143   -0.1690 H   0  0  0  0  0  0  0  0  0  0  0  0
   -6.6663    0.0914   -0.2491 H   0  0  0  0  0  0  0  0  0  0  0  0
   -5.8212    0.4810    1.2590 H   0  0  0  0  0  0  0  0  0  0  0  0
    2.4043    3.0079    0.3403 H   0  0  0  0  0  0  0  0  0  0  0  0
    1.3750    2.0986    1.4681 H   0  0  0  0  0  0  0  0  0  0  0  0
    3.1486    1.8387    1.4550 H   0  0  0  0  0  0  0  0  0  0  0  0
    4.4592   -0.0325   -0.0454 H   0  0  0  0  0  0  0  0  0  0  0  0
  1  8  1  0  0  0  0
  1 32  1  0  0  0  0
  2 10  2  0  0  0  0
  3  4  1  0  0  0  0
  3  5  1  0  0  0  0
  3 13  1  0  0  0  0
  3 14  1  0  0  0  0
  4  6  1  0  0  0  0
  4 15  1  0  0  0  0
  4 16  1  0  0  0  0
  5  8  1  0  0  0  0
  5 10  1  0  0  0  0
  5 17  1  0  0  0  0
  6  7  1  0  0  0  0
  6 18  1  0  0  0  0
  6 19  1  0  0  0  0
  7  9  1  0  0  0  0
  7 20  1  0  0  0  0
  7 21  1  0  0  0  0
  8 22  1  0  0  0  0
  8 23  1  0  0  0  0
  9 11  1  0  0  0  0
  9 24  1  0  0  0  0
  9 25  1  0  0  0  0
 10 12  1  0  0  0  0
 11 26  1  0  0  0  0
 11 27  1  0  0  0  0
 11 28  1  0  0  0  0
 12 29  1  0  0  0  0
 12 30  1  0  0  0  0
 12 31  1  0  0  0  0
M  END
> <PUBCHEM_COMPOUND_CID>
106823

> <PUBCHEM_CONFORMER_RMSD>
0.8

> <PUBCHEM_CONFORMER_DIVERSEORDER>
1
129
189
58
85
186
169
6
135
71
187
153
110
167
180
39
31
188
55
21
34
7
164
82
92
90
168
89
5
30
184
22
3
142
116
175
73
109
151
126
43
53
65
10
185
132
150
183
181
9
28
99
68
163
93
113
60
178
139
174
17
172
145
19
173
8
112
81
76
14
122
115
171
11
46
162
57
148
111
47
75
149
147
177
23
77
91
152
27
95
2
84
176
38
105
117
26
48
160
128
134
69
144
86
146
51
131
80
98
49
13
61
119
12
127
50
94
79
179
161
170
107
159
29
64
24
114
96
45
20
78
104
18
25
130
54
63
120
137
36
102
156
141
103
62
52
118
138
66
123
88
56
143
74
16
108
124
35
44
67
40
106
154
59
83
182
121
33
70
125
72
4
41
158
42
140
157
100
101
32
97
87
37
133
165
136
15
166
155

> <PUBCHEM_MMFF94_PARTIAL_CHARGES>
7
1 -0.68
10 0.45
12 0.06
2 -0.57
32 0.4
5 0.06
8 0.28

> <PUBCHEM_EFFECTIVE_ROTOR_COUNT>
7

> <PUBCHEM_PHARMACOPHORE_FEATURES>
6
1 1 acceptor
1 1 donor
1 11 hydrophobe
1 2 acceptor
3 3 4 5 hydrophobe
3 6 7 9 hydrophobe

> <PUBCHEM_HEAVY_ATOM_COUNT>
12

> <PUBCHEM_ATOM_DEF_STEREO_COUNT>
0

> <PUBCHEM_ATOM_UDEF_STEREO_COUNT>
1

> <PUBCHEM_BOND_DEF_STEREO_COUNT>
0

> <PUBCHEM_BOND_UDEF_STEREO_COUNT>
0

> <PUBCHEM_ISOTOPIC_ATOM_COUNT>
0

> <PUBCHEM_COMPONENT_COUNT>
1

> <PUBCHEM_CACTVS_TAUTO_COUNT>
3

> <PUBCHEM_CONFORMER_ID>
0001A14700000001

> <PUBCHEM_MMFF94_ENERGY>
7.4516

> <PUBCHEM_FEATURE_SELFOVERLAP>
30.459

> <PUBCHEM_SHAPE_FINGERPRINT>
13922767 16 18411134736276932266
14123238 8 10879986957019874795
17802600 8 18411134710644466873
17834072 33 18272928363171664447
17834076 25 10952044559109823091
18186145 218 17895185619620233787
190213 19 15913332399075660031
20606313 2 18412263943129166664
20645477 70 18411983555069754647
212847 35 18409733958589908493
22485316 2 10879991350887300681
23380061 81 17894636980059869613
23402539 116 16845280619267976631
23402655 69 18342458162111546933
23557571 272 15626230069786951379
449060 62 18334018323715467909
522135 26 18408605855285513879

> <PUBCHEM_SHAPE_MULTIPOLES>
235.22
9.97
1.53
0.83
13.86
0.59
0.16
0.17
-0.37
-1.79
-0.12
-0.4
0.22
-0.2

> <PUBCHEM_SHAPE_SELFOVERLAP>
428.684

> <PUBCHEM_SHAPE_VOLUME>
150.4

> <PUBCHEM_COORDINATE_TYPE>
2
5
10

$$$$
