106871
  -OEChem-11232109093D

 46 46  0     1  0  0  0  0  0999 V2000
   -2.7829    2.2172    1.0615 O   0  0  0  0  0  0  0  0  0  0  0  0
   -2.3852    0.2799    2.2396 O   0  0  0  0  0  0  0  0  0  0  0  0
   -1.1211   -1.5236    0.5850 N   0  0  0  0  0  0  0  0  0  0  0  0
    2.3183   -2.2890    0.9788 C   0  0  1  0  0  0  0  0  0  0  0  0
    3.1627   -1.3371    0.1067 C   0  0  0  0  0  0  0  0  0  0  0  0
    1.0806   -1.6368    1.6163 C   0  0  0  0  0  0  0  0  0  0  0  0
    3.6180   -0.0746    0.8438 C   0  0  0  0  0  0  0  0  0  0  0  0
    1.9297   -3.5298    0.1665 C   0  0  0  0  0  0  0  0  0  0  0  0
    4.4487    0.8039   -0.0496 C   0  0  0  0  0  0  0  0  0  0  0  0
    0.1037   -1.1091    0.5981 C   0  0  0  0  0  0  0  0  0  0  0  0
    4.0312    1.8332   -0.8107 C   0  0  0  0  0  0  0  0  0  0  0  0
    4.9168    2.6750   -1.6850 C   0  0  0  0  0  0  0  0  0  0  0  0
    2.5801    2.2338   -0.8237 C   0  0  0  0  0  0  0  0  0  0  0  0
   -1.9488   -0.9500   -0.3946 C   0  0  0  0  0  0  0  0  0  0  0  0
   -2.6711    0.2105   -0.1265 C   0  0  0  0  0  0  0  0  0  0  0  0
   -2.0380   -1.5603   -1.6435 C   0  0  0  0  0  0  0  0  0  0  0  0
   -3.4869    0.7640   -1.1133 C   0  0  0  0  0  0  0  0  0  0  0  0
   -2.8538   -1.0067   -2.6301 C   0  0  0  0  0  0  0  0  0  0  0  0
   -3.5782    0.1553   -2.3651 C   0  0  0  0  0  0  0  0  0  0  0  0
   -2.5947    0.8674    1.1718 C   0  0  0  0  0  0  0  0  0  0  0  0
   -2.7291    2.9767    2.2739 C   0  0  0  0  0  0  0  0  0  0  0  0
    2.9572   -2.6307    1.8044 H   0  0  0  0  0  0  0  0  0  0  0  0
    2.5988   -1.0583   -0.7926 H   0  0  0  0  0  0  0  0  0  0  0  0
    4.0483   -1.8809   -0.2495 H   0  0  0  0  0  0  0  0  0  0  0  0
    0.5663   -2.3688    2.2512 H   0  0  0  0  0  0  0  0  0  0  0  0
    1.3662   -0.8058    2.2681 H   0  0  0  0  0  0  0  0  0  0  0  0
    2.7754    0.4860    1.2550 H   0  0  0  0  0  0  0  0  0  0  0  0
    4.2302   -0.3577    1.7093 H   0  0  0  0  0  0  0  0  0  0  0  0
    2.8238   -4.0541   -0.1880 H   0  0  0  0  0  0  0  0  0  0  0  0
    1.3267   -3.2681   -0.7093 H   0  0  0  0  0  0  0  0  0  0  0  0
    1.3545   -4.2319    0.7792 H   0  0  0  0  0  0  0  0  0  0  0  0
    5.5072    0.5494   -0.0813 H   0  0  0  0  0  0  0  0  0  0  0  0
    0.4695   -0.3429   -0.1070 H   0  0  0  0  0  0  0  0  0  0  0  0
    5.9623    2.3549   -1.6266 H   0  0  0  0  0  0  0  0  0  0  0  0
    4.8705    3.7246   -1.3773 H   0  0  0  0  0  0  0  0  0  0  0  0
    4.6023    2.6017   -2.7310 H   0  0  0  0  0  0  0  0  0  0  0  0
    2.4596    3.2134   -0.3491 H   0  0  0  0  0  0  0  0  0  0  0  0
    2.2274    2.3128   -1.8583 H   0  0  0  0  0  0  0  0  0  0  0  0
    1.9074    1.5358   -0.3246 H   0  0  0  0  0  0  0  0  0  0  0  0
   -1.4779   -2.4663   -1.8596 H   0  0  0  0  0  0  0  0  0  0  0  0
   -4.0758    1.6600   -0.9353 H   0  0  0  0  0  0  0  0  0  0  0  0
   -2.9257   -1.4809   -3.6045 H   0  0  0  0  0  0  0  0  0  0  0  0
   -4.2159    0.5841   -3.1326 H   0  0  0  0  0  0  0  0  0  0  0  0
   -2.8952    4.0280    2.0247 H   0  0  0  0  0  0  0  0  0  0  0  0
   -3.5156    2.6480    2.9597 H   0  0  0  0  0  0  0  0  0  0  0  0
   -1.7438    2.8757    2.7385 H   0  0  0  0  0  0  0  0  0  0  0  0
  1 20  1  0  0  0  0
  1 21  1  0  0  0  0
  2 20  2  0  0  0  0
  3 10  2  0  0  0  0
  3 14  1  0  0  0  0
  4  5  1  0  0  0  0
  4  6  1  0  0  0  0
  4  8  1  0  0  0  0
  4 22  1  0  0  0  0
  5  7  1  0  0  0  0
  5 23  1  0  0  0  0
  5 24  1  0  0  0  0
  6 10  1  0  0  0  0
  6 25  1  0  0  0  0
  6 26  1  0  0  0  0
  7  9  1  0  0  0  0
  7 27  1  0  0  0  0
  7 28  1  0  0  0  0
  8 29  1  0  0  0  0
  8 30  1  0  0  0  0
  8 31  1  0  0  0  0
  9 11  2  0  0  0  0
  9 32  1  0  0  0  0
 10 33  1  0  0  0  0
 11 12  1  0  0  0  0
 11 13  1  0  0  0  0
 12 34  1  0  0  0  0
 12 35  1  0  0  0  0
 12 36  1  0  0  0  0
 13 37  1  0  0  0  0
 13 38  1  0  0  0  0
 13 39  1  0  0  0  0
 14 15  1  0  0  0  0
 14 16  2  0  0  0  0
 15 17  2  0  0  0  0
 15 20  1  0  0  0  0
 16 18  1  0  0  0  0
 16 40  1  0  0  0  0
 17 19  1  0  0  0  0
 17 41  1  0  0  0  0
 18 19  2  0  0  0  0
 18 42  1  0  0  0  0
 19 43  1  0  0  0  0
 21 44  1  0  0  0  0
 21 45  1  0  0  0  0
 21 46  1  0  0  0  0
M  END
> <PUBCHEM_COMPOUND_CID>
106871

> <PUBCHEM_CONFORMER_RMSD>
1

> <PUBCHEM_CONFORMER_DIVERSEORDER>
1
752
95
684
602
667
186
194
431
780
459
109
362
460
156
55
479
273
534
492
33
183
182
255
546
249
617
111
9
536
686
300
449
155
16
195
240
217
741
31
64
116
222
433
450
48
740
26
685
312
208
711
18
763
610
20
730
733
86
38
321
775
532
30
177
184
574
89
298
219
266
216
345
6
125
165
256
337
105
478
550
162
590
525
654
137
755
563
360
90
764
107
257
211
91
3
160
73
535
250
645
226
135
21
326
174
515
380
314
286
28
756
735
229
22
643
770
526
789
13
604
171
79
17
520
127
51
87
7
143
57
277
72
417
77
537
728
386
2
452
785
477
265
700
248
402
583
27
530
124
11
152
410
506
8
444
115
470
636
441
58
524
74
41
172
76
687
209
457
49
759
607
580
10
169
4
486
584
65
142
462
5
303
175

> <PUBCHEM_MMFF94_PARTIAL_CHARGES>
24
1 -0.43
10 0.33
11 -0.28
12 0.14
13 0.14
14 0.18
15 0.09
16 -0.15
17 -0.15
18 -0.15
19 -0.15
2 -0.57
20 0.63
21 0.28
3 -0.63
32 0.15
33 0.06
40 0.15
41 0.15
42 0.15
43 0.15
6 0.06
7 0.14
9 -0.29

> <PUBCHEM_EFFECTIVE_ROTOR_COUNT>
8

> <PUBCHEM_PHARMACOPHORE_FEATURES>
6
1 2 acceptor
1 3 acceptor
1 8 hydrophobe
3 11 12 13 hydrophobe
5 4 5 6 7 9 hydrophobe
6 14 15 16 17 18 19 rings

> <PUBCHEM_HEAVY_ATOM_COUNT>
21

> <PUBCHEM_ATOM_DEF_STEREO_COUNT>
0

> <PUBCHEM_ATOM_UDEF_STEREO_COUNT>
1

> <PUBCHEM_BOND_DEF_STEREO_COUNT>
0

> <PUBCHEM_BOND_UDEF_STEREO_COUNT>
0

> <PUBCHEM_ISOTOPIC_ATOM_COUNT>
0

> <PUBCHEM_COMPONENT_COUNT>
1

> <PUBCHEM_CACTVS_TAUTO_COUNT>
3

> <PUBCHEM_CONFORMER_ID>
0001A17700000001

> <PUBCHEM_MMFF94_ENERGY>
47.3453

> <PUBCHEM_FEATURE_SELFOVERLAP>
30.454

> <PUBCHEM_SHAPE_FINGERPRINT>
11273773 118 16806742870576365748
11640471 11 18271810072933948906
11725454 13 16443883017022157423
12539773 59 18271240629217122357
12549972 3 15792848898003071416
12788726 201 17846490427321906653
13134695 92 17679848333485092514
14123250 116 18340493369060554704
14468879 13 16878208844709503909
15295992 7 16516797048955553411
15342168 16 18333454231163420263
18219364 16 17676204688797901410
20449540 30 18261668281001592907
21095088 737 18123465252968862880
21864079 5 18269562645523610690
22749437 52 18262227945552777248
22907989 373 18272927258764118023
23557571 272 15913033339927970131
23598291 2 18128809751316192886
27216 239 16732976574347080135
474 4 18261106374883285322
4921388 177 15984833652539848393
633830 44 18337969917255977710
7615 1 18057587803047350170

> <PUBCHEM_SHAPE_MULTIPOLES>
415.45
9.18
3.55
2.41
6.78
0.05
0.26
-5.91
3.44
2.81
-0.72
-2.81
-0.89
-3.75

> <PUBCHEM_SHAPE_SELFOVERLAP>
835.139

> <PUBCHEM_SHAPE_VOLUME>
245.1

> <PUBCHEM_COORDINATE_TYPE>
2
5
10

$$$$
