106936
  -OEChem-11232109143D

 48 48  0     1  0  0  0  0  0999 V2000
   -0.3544   -1.3838    0.5662 O   0  0  0  0  0  0  0  0  0  0  0  0
   -1.4739   -0.2996   -1.1344 O   0  0  0  0  0  0  0  0  0  0  0  0
    3.1780   -2.4627   -0.3294 C   0  0  2  0  0  0  0  0  0  0  0  0
    3.7758   -1.1662   -0.9145 C   0  0  0  0  0  0  0  0  0  0  0  0
    3.8918    0.0022    0.0715 C   0  0  0  0  0  0  0  0  0  0  0  0
    4.5424    1.2200   -0.5955 C   0  0  0  0  0  0  0  0  0  0  0  0
    1.8922   -2.2540    0.4901 C   0  0  0  0  0  0  0  0  0  0  0  0
    4.6235    2.4530    0.3238 C   0  0  0  0  0  0  0  0  0  0  0  0
    4.2087   -3.2254    0.5098 C   0  0  0  0  0  0  0  0  0  0  0  0
    0.7876   -1.5279   -0.2698 C   0  0  0  0  0  0  0  0  0  0  0  0
    3.2157    2.8704    0.7563 C   0  0  0  0  0  0  0  0  0  0  0  0
    5.3293    3.6345   -0.3430 C   0  0  0  0  0  0  0  0  0  0  0  0
   -1.4285   -0.7440    0.0046 C   0  0  0  0  0  0  0  0  0  0  0  0
   -2.5467   -0.6737    1.0173 C   0  0  0  0  0  0  0  0  0  0  0  0
   -3.7898   -0.0161    0.4759 C   0  0  0  0  0  0  0  0  0  0  0  0
   -3.9591    1.3630    0.5986 C   0  0  0  0  0  0  0  0  0  0  0  0
   -4.7711   -0.7864   -0.1483 C   0  0  0  0  0  0  0  0  0  0  0  0
   -5.1094    1.9720    0.0974 C   0  0  0  0  0  0  0  0  0  0  0  0
   -5.9216   -0.1773   -0.6496 C   0  0  0  0  0  0  0  0  0  0  0  0
   -6.0906    1.2019   -0.5267 C   0  0  0  0  0  0  0  0  0  0  0  0
    2.9289   -3.1092   -1.1821 H   0  0  0  0  0  0  0  0  0  0  0  0
    3.1537   -0.8469   -1.7609 H   0  0  0  0  0  0  0  0  0  0  0  0
    4.7636   -1.3862   -1.3394 H   0  0  0  0  0  0  0  0  0  0  0  0
    4.4929   -0.2963    0.9377 H   0  0  0  0  0  0  0  0  0  0  0  0
    2.8999    0.2657    0.4411 H   0  0  0  0  0  0  0  0  0  0  0  0
    5.5559    0.9503   -0.9185 H   0  0  0  0  0  0  0  0  0  0  0  0
    3.9838    1.4799   -1.5041 H   0  0  0  0  0  0  0  0  0  0  0  0
    1.5052   -3.2292    0.8154 H   0  0  0  0  0  0  0  0  0  0  0  0
    2.1077   -1.7144    1.4212 H   0  0  0  0  0  0  0  0  0  0  0  0
    5.1950    2.1858    1.2217 H   0  0  0  0  0  0  0  0  0  0  0  0
    3.8043   -4.1888    0.8382 H   0  0  0  0  0  0  0  0  0  0  0  0
    5.1136   -3.4270   -0.0731 H   0  0  0  0  0  0  0  0  0  0  0  0
    4.4976   -2.6607    1.4020 H   0  0  0  0  0  0  0  0  0  0  0  0
    0.5118   -2.1113   -1.1565 H   0  0  0  0  0  0  0  0  0  0  0  0
    1.1097   -0.5341   -0.5936 H   0  0  0  0  0  0  0  0  0  0  0  0
    3.2452    3.8250    1.2938 H   0  0  0  0  0  0  0  0  0  0  0  0
    2.7677    2.1449    1.4414 H   0  0  0  0  0  0  0  0  0  0  0  0
    2.5503    2.9938   -0.1049 H   0  0  0  0  0  0  0  0  0  0  0  0
    6.3449    3.3566   -0.6437 H   0  0  0  0  0  0  0  0  0  0  0  0
    5.4040    4.4846    0.3432 H   0  0  0  0  0  0  0  0  0  0  0  0
    4.7900    3.9645   -1.2374 H   0  0  0  0  0  0  0  0  0  0  0  0
   -2.7857   -1.6925    1.3455 H   0  0  0  0  0  0  0  0  0  0  0  0
   -2.1895   -0.1194    1.8933 H   0  0  0  0  0  0  0  0  0  0  0  0
   -3.2007    1.9741    1.0809 H   0  0  0  0  0  0  0  0  0  0  0  0
   -4.6499   -1.8614   -0.2520 H   0  0  0  0  0  0  0  0  0  0  0  0
   -5.2409    3.0459    0.1925 H   0  0  0  0  0  0  0  0  0  0  0  0
   -6.6854   -0.7767   -1.1363 H   0  0  0  0  0  0  0  0  0  0  0  0
   -6.9862    1.6761   -0.9174 H   0  0  0  0  0  0  0  0  0  0  0  0
  1 10  1  0  0  0  0
  1 13  1  0  0  0  0
  2 13  2  0  0  0  0
  3  4  1  0  0  0  0
  3  7  1  0  0  0  0
  3  9  1  0  0  0  0
  3 21  1  0  0  0  0
  4  5  1  0  0  0  0
  4 22  1  0  0  0  0
  4 23  1  0  0  0  0
  5  6  1  0  0  0  0
  5 24  1  0  0  0  0
  5 25  1  0  0  0  0
  6  8  1  0  0  0  0
  6 26  1  0  0  0  0
  6 27  1  0  0  0  0
  7 10  1  0  0  0  0
  7 28  1  0  0  0  0
  7 29  1  0  0  0  0
  8 11  1  0  0  0  0
  8 12  1  0  0  0  0
  8 30  1  0  0  0  0
  9 31  1  0  0  0  0
  9 32  1  0  0  0  0
  9 33  1  0  0  0  0
 10 34  1  0  0  0  0
 10 35  1  0  0  0  0
 11 36  1  0  0  0  0
 11 37  1  0  0  0  0
 11 38  1  0  0  0  0
 12 39  1  0  0  0  0
 12 40  1  0  0  0  0
 12 41  1  0  0  0  0
 13 14  1  0  0  0  0
 14 15  1  0  0  0  0
 14 42  1  0  0  0  0
 14 43  1  0  0  0  0
 15 16  2  0  0  0  0
 15 17  1  0  0  0  0
 16 18  1  0  0  0  0
 16 44  1  0  0  0  0
 17 19  2  0  0  0  0
 17 45  1  0  0  0  0
 18 20  2  0  0  0  0
 18 46  1  0  0  0  0
 19 20  1  0  0  0  0
 19 47  1  0  0  0  0
 20 48  1  0  0  0  0
M  END
> <PUBCHEM_COMPOUND_CID>
106936

> <PUBCHEM_CONFORMER_RMSD>
1.2

> <PUBCHEM_CONFORMER_DIVERSEORDER>
1
65
87
21
28
3
69
36
81
85
72
30
48
94
9
62
63
40
79
78
7
55
43
97
47
42
54
41
61
75
82
51
34
17
39
57
49
80
64
22
83
86
8
53
74
67
76
31
15
58
26
38
68
24
14
4
70
27
12
56
16
84
25
33
60
37
45
88
90
6
23
91
89
10
50
95
71
98
19
18
59
66
2
46
35
5
92
20
32
44
73
13
11
52
96
29
77
93

> <PUBCHEM_MMFF94_PARTIAL_CHARGES>
16
1 -0.43
10 0.28
13 0.66
14 0.2
15 -0.14
16 -0.15
17 -0.15
18 -0.15
19 -0.15
2 -0.57
20 -0.15
44 0.15
45 0.15
46 0.15
47 0.15
48 0.15

> <PUBCHEM_EFFECTIVE_ROTOR_COUNT>
10

> <PUBCHEM_PHARMACOPHORE_FEATURES>
6
1 2 acceptor
1 9 hydrophobe
3 3 4 7 hydrophobe
3 5 6 8 hydrophobe
3 8 11 12 hydrophobe
6 15 16 17 18 19 20 rings

> <PUBCHEM_HEAVY_ATOM_COUNT>
20

> <PUBCHEM_ATOM_DEF_STEREO_COUNT>
0

> <PUBCHEM_ATOM_UDEF_STEREO_COUNT>
1

> <PUBCHEM_BOND_DEF_STEREO_COUNT>
0

> <PUBCHEM_BOND_UDEF_STEREO_COUNT>
0

> <PUBCHEM_ISOTOPIC_ATOM_COUNT>
0

> <PUBCHEM_COMPONENT_COUNT>
1

> <PUBCHEM_CACTVS_TAUTO_COUNT>
1

> <PUBCHEM_CONFORMER_ID>
0001A1B800000001

> <PUBCHEM_MMFF94_ENERGY>
31.8447

> <PUBCHEM_FEATURE_SELFOVERLAP>
31.096

> <PUBCHEM_SHAPE_FINGERPRINT>
10595046 47 18341891918176951831
11089746 13 18262519182536880411
12633257 1 16081649010357043724
12769317 202 18342737455514228072
13878862 14 18262781996022660700
14251764 38 18269843021052614089
14251764 75 18267315411572059992
14528608 73 18412827975657245271
14774955 27 18410572924531918982
14848178 96 18411140251099460000
14931854 50 17988095486266116464
15142526 21 18261391208455934538
17834072 33 18341892957538126751
17844677 252 18341337682611908211
20554085 129 16298378051493215785
21033648 29 17095517362758782045
21315763 129 18267583516014338943
21315763 76 18272370875878671184
21315764 268 18262515875707046157
21388113 180 18265057005977328000
23559900 14 18338797793139905731
245318 6 17824558597315784996
270888 7 18265895955330429876
34797466 226 18131359592095915735
44555599 121 18128259987429556257
474 4 18340487863313576914
5104073 3 18186807958947151355
5312510 48 18412266129399889553
57091435 61 18409445929640823296
67856867 119 18410852131565885563

> <PUBCHEM_SHAPE_MULTIPOLES>
399.85
16.22
3.93
0.92
12.06
1.46
0.02
9.34
1.91
-8.66
-0.42
0.06
-0.03
-0.08

> <PUBCHEM_SHAPE_SELFOVERLAP>
785.893

> <PUBCHEM_SHAPE_VOLUME>
239.6

> <PUBCHEM_COORDINATE_TYPE>
2
5
10

$$$$
