106917
  -OEChem-11232108583D

 33 33  0     1  0  0  0  0  0999 V2000
   -1.7768    0.9913   -0.1244 O   0  0  0  0  0  0  0  0  0  0  0  0
   -2.8955   -0.6637    1.0358 O   0  0  0  0  0  0  0  0  0  0  0  0
    1.2782   -1.2698   -0.1172 C   0  0  0  0  0  0  0  0  0  0  0  0
    2.2952   -0.1375   -0.3951 C   0  0  0  0  0  0  0  0  0  0  0  0
    1.9569    1.1831    0.3166 C   0  0  2  0  0  0  0  0  0  0  0  0
   -0.1538   -0.7710   -0.4060 C   0  0  0  0  0  0  0  0  0  0  0  0
   -0.4945    0.5404    0.3042 C   0  0  1  0  0  0  0  0  0  0  0  0
    0.5284    1.6281   -0.0122 C   0  0  0  0  0  0  0  0  0  0  0  0
    1.5896   -2.4593   -1.0455 C   0  0  0  0  0  0  0  0  0  0  0  0
    1.3972   -1.7626    1.3378 C   0  0  0  0  0  0  0  0  0  0  0  0
    2.9587    2.2713   -0.0697 C   0  0  0  0  0  0  0  0  0  0  0  0
   -2.8148    0.1356    0.1130 C   0  0  0  0  0  0  0  0  0  0  0  0
   -3.8688    0.3141   -0.9374 C   0  0  0  0  0  0  0  0  0  0  0  0
    2.3364    0.0484   -1.4775 H   0  0  0  0  0  0  0  0  0  0  0  0
    3.3025   -0.4622   -0.1028 H   0  0  0  0  0  0  0  0  0  0  0  0
    2.0361    1.0354    1.4006 H   0  0  0  0  0  0  0  0  0  0  0  0
   -0.8668   -1.5612   -0.1431 H   0  0  0  0  0  0  0  0  0  0  0  0
   -0.2816   -0.6228   -1.4880 H   0  0  0  0  0  0  0  0  0  0  0  0
   -0.5262    0.3958    1.3911 H   0  0  0  0  0  0  0  0  0  0  0  0
    0.2752    2.5383    0.5462 H   0  0  0  0  0  0  0  0  0  0  0  0
    0.4506    1.9052   -1.0725 H   0  0  0  0  0  0  0  0  0  0  0  0
    2.6024   -2.8407   -0.8734 H   0  0  0  0  0  0  0  0  0  0  0  0
    1.5187   -2.1702   -2.1000 H   0  0  0  0  0  0  0  0  0  0  0  0
    0.8884   -3.2850   -0.8799 H   0  0  0  0  0  0  0  0  0  0  0  0
    1.1872   -0.9753    2.0672 H   0  0  0  0  0  0  0  0  0  0  0  0
    2.4067   -2.1368    1.5431 H   0  0  0  0  0  0  0  0  0  0  0  0
    0.6958   -2.5820    1.5322 H   0  0  0  0  0  0  0  0  0  0  0  0
    2.9314    2.4758   -1.1453 H   0  0  0  0  0  0  0  0  0  0  0  0
    2.7394    3.2054    0.4581 H   0  0  0  0  0  0  0  0  0  0  0  0
    3.9786    1.9701    0.1921 H   0  0  0  0  0  0  0  0  0  0  0  0
   -3.4520    0.0873   -1.9219 H   0  0  0  0  0  0  0  0  0  0  0  0
   -4.2526    1.3369   -0.9073 H   0  0  0  0  0  0  0  0  0  0  0  0
   -4.6957   -0.3745   -0.7420 H   0  0  0  0  0  0  0  0  0  0  0  0
  1  7  1  0  0  0  0
  1 12  1  0  0  0  0
  2 12  2  0  0  0  0
  3  4  1  0  0  0  0
  3  6  1  0  0  0  0
  3  9  1  0  0  0  0
  3 10  1  0  0  0  0
  4  5  1  0  0  0  0
  4 14  1  0  0  0  0
  4 15  1  0  0  0  0
  5  8  1  0  0  0  0
  5 11  1  0  0  0  0
  5 16  1  0  0  0  0
  6  7  1  0  0  0  0
  6 17  1  0  0  0  0
  6 18  1  0  0  0  0
  7  8  1  0  0  0  0
  7 19  1  0  0  0  0
  8 20  1  0  0  0  0
  8 21  1  0  0  0  0
  9 22  1  0  0  0  0
  9 23  1  0  0  0  0
  9 24  1  0  0  0  0
 10 25  1  0  0  0  0
 10 26  1  0  0  0  0
 10 27  1  0  0  0  0
 11 28  1  0  0  0  0
 11 29  1  0  0  0  0
 11 30  1  0  0  0  0
 12 13  1  0  0  0  0
 13 31  1  0  0  0  0
 13 32  1  0  0  0  0
 13 33  1  0  0  0  0
M  END
> <PUBCHEM_COMPOUND_CID>
106917

> <PUBCHEM_CONFORMER_RMSD>
0.6

> <PUBCHEM_CONFORMER_DIVERSEORDER>
7
22
26
37
32
49
9
30
28
23
33
15
16
34
47
11
36
17
27
38
13
24
31
20
5
43
8
42
1
3
4
19
10
18
6
35
48
46
39
29
40
12
2
45
14
41
21
44
25

> <PUBCHEM_MMFF94_PARTIAL_CHARGES>
5
1 -0.43
12 0.66
13 0.06
2 -0.57
7 0.28

> <PUBCHEM_EFFECTIVE_ROTOR_COUNT>
3.2

> <PUBCHEM_PHARMACOPHORE_FEATURES>
3
1 2 acceptor
3 3 9 10 hydrophobe
6 3 4 5 6 7 8 rings

> <PUBCHEM_HEAVY_ATOM_COUNT>
13

> <PUBCHEM_ATOM_DEF_STEREO_COUNT>
0

> <PUBCHEM_ATOM_UDEF_STEREO_COUNT>
2

> <PUBCHEM_BOND_DEF_STEREO_COUNT>
0

> <PUBCHEM_BOND_UDEF_STEREO_COUNT>
0

> <PUBCHEM_ISOTOPIC_ATOM_COUNT>
0

> <PUBCHEM_COMPONENT_COUNT>
1

> <PUBCHEM_CACTVS_TAUTO_COUNT>
1

> <PUBCHEM_CONFORMER_ID>
0001A1A500000007

> <PUBCHEM_MMFF94_ENERGY>
29.2122

> <PUBCHEM_FEATURE_SELFOVERLAP>
15.223

> <PUBCHEM_SHAPE_FINGERPRINT>
1 1 18412546548030461996
107287 299 18411145765657905353
10922049 32 18264497359079993456
10980938 120 18342172276061180261
12326174 3 18336541638439729074
12423570 1 10263260426475460306
12654215 9 18408879620637926148
12932764 1 17823143345741044307
13380535 76 18338795736108253922
14251717 144 18342731927463757781
14648413 74 18268153045847199217
14817 1 8712557107045270554
15219456 202 18260831518535482865
15757776 16 18336539434884083878
15775835 57 18270963577903673645
161256 15 18337955584554790500
16945 1 18342749498254034814
170605 34 18409728503669926860
17990270 104 18197216953590286631
20201158 50 18335983077948145987
20279233 1 17967249810780500625
20645476 183 17461450401728857748
20645477 70 18411694370911181735
20653091 64 18266179435528834144
20711985 344 17330841214481552538
20871998 22 18054507998163815990
21499 59 18268424814066056284
21501502 16 18266173938045009197
21524375 3 18265891552593033208
21947302 44 18261385633472073025
23530152 11 18270681007894906078
23552423 10 18337677399459685857
23557571 272 16443059491903632421
241688 4 17620764886101074026
257057 1 17686606953612887362
2748010 2 18195541512934308542
528862 383 18410283718381966828
581208 293 18342450469609075733
7364860 26 18343301431679664918
81228 2 17260744049770920976
81539 233 18261669367501484628

> <PUBCHEM_SHAPE_MULTIPOLES>
255.8
5.07
2.37
1.01
5.17
0.33
0.12
-1.36
-0.58
-2.48
-0.2
0.07
0.49
0.25

> <PUBCHEM_SHAPE_SELFOVERLAP>
502.649

> <PUBCHEM_SHAPE_VOLUME>
153.6

> <PUBCHEM_COORDINATE_TYPE>
2
5
10

$$$$
