106937
  -OEChem-11232109003D

 40 41  0     1  0  0  0  0  0999 V2000
    1.8763   -1.0600   -0.1139 O   0  0  0  0  0  0  0  0  0  0  0  0
    2.6063    0.3476    1.5610 O   0  0  0  0  0  0  0  0  0  0  0  0
   -1.5600    0.4257    0.3556 C   0  0  1  0  0  0  0  0  0  0  0  0
   -2.3342   -0.6919   -0.3725 C   0  0  1  0  0  0  0  0  0  0  0  0
   -0.0681    0.3653    0.0091 C   0  0  0  0  0  0  0  0  0  0  0  0
   -1.7441   -2.0689   -0.0401 C   0  0  0  0  0  0  0  0  0  0  0  0
   -2.1503    1.8015    0.0211 C   0  0  0  0  0  0  0  0  0  0  0  0
   -3.8275   -0.6323   -0.0257 C   0  0  0  0  0  0  0  0  0  0  0  0
    0.5229   -1.0093    0.3244 C   0  0  1  0  0  0  0  0  0  0  0  0
   -0.2545   -2.1271   -0.3665 C   0  0  0  0  0  0  0  0  0  0  0  0
   -3.6413    1.8619    0.3468 C   0  0  0  0  0  0  0  0  0  0  0  0
   -4.4175    0.7413   -0.3386 C   0  0  0  0  0  0  0  0  0  0  0  0
    2.7178   -0.1323    0.4405 C   0  0  0  0  0  0  0  0  0  0  0  0
    3.8111    0.2253   -0.5511 C   0  0  0  0  0  0  0  0  0  0  0  0
    3.3532    1.3873   -1.4247 C   0  0  0  0  0  0  0  0  0  0  0  0
    5.1100    0.5659    0.1747 C   0  0  0  0  0  0  0  0  0  0  0  0
   -1.6605    0.2712    1.4398 H   0  0  0  0  0  0  0  0  0  0  0  0
   -2.2340   -0.5362   -1.4566 H   0  0  0  0  0  0  0  0  0  0  0  0
    0.0830    0.5938   -1.0545 H   0  0  0  0  0  0  0  0  0  0  0  0
    0.4542    1.1572    0.5572 H   0  0  0  0  0  0  0  0  0  0  0  0
   -2.2691   -2.8478   -0.6056 H   0  0  0  0  0  0  0  0  0  0  0  0
   -1.8917   -2.2934    1.0239 H   0  0  0  0  0  0  0  0  0  0  0  0
   -2.0025    2.0240   -1.0433 H   0  0  0  0  0  0  0  0  0  0  0  0
   -1.6257    2.5818    0.5851 H   0  0  0  0  0  0  0  0  0  0  0  0
   -3.9742   -0.8559    1.0386 H   0  0  0  0  0  0  0  0  0  0  0  0
   -4.3739   -1.3973   -0.5899 H   0  0  0  0  0  0  0  0  0  0  0  0
    0.4960   -1.1886    1.4075 H   0  0  0  0  0  0  0  0  0  0  0  0
    0.1565   -3.1003   -0.0720 H   0  0  0  0  0  0  0  0  0  0  0  0
   -0.1088   -2.0617   -1.4528 H   0  0  0  0  0  0  0  0  0  0  0  0
   -4.0464    2.8324    0.0388 H   0  0  0  0  0  0  0  0  0  0  0  0
   -3.7797    1.7888    1.4326 H   0  0  0  0  0  0  0  0  0  0  0  0
   -5.4661    0.7723   -0.0218 H   0  0  0  0  0  0  0  0  0  0  0  0
   -4.4073    0.9027   -1.4236 H   0  0  0  0  0  0  0  0  0  0  0  0
    4.0047   -0.6526   -1.1801 H   0  0  0  0  0  0  0  0  0  0  0  0
    4.1262    1.6603   -2.1503 H   0  0  0  0  0  0  0  0  0  0  0  0
    3.1211    2.2717   -0.8210 H   0  0  0  0  0  0  0  0  0  0  0  0
    2.4474    1.1229   -1.9806 H   0  0  0  0  0  0  0  0  0  0  0  0
    5.9164    0.7594   -0.5402 H   0  0  0  0  0  0  0  0  0  0  0  0
    5.4211   -0.2613    0.8221 H   0  0  0  0  0  0  0  0  0  0  0  0
    4.9957    1.4540    0.8061 H   0  0  0  0  0  0  0  0  0  0  0  0
  1  9  1  0  0  0  0
  1 13  1  0  0  0  0
  2 13  2  0  0  0  0
  3  4  1  0  0  0  0
  3  5  1  0  0  0  0
  3  7  1  0  0  0  0
  3 17  1  0  0  0  0
  4  6  1  0  0  0  0
  4  8  1  0  0  0  0
  4 18  1  0  0  0  0
  5  9  1  0  0  0  0
  5 19  1  0  0  0  0
  5 20  1  0  0  0  0
  6 10  1  0  0  0  0
  6 21  1  0  0  0  0
  6 22  1  0  0  0  0
  7 11  1  0  0  0  0
  7 23  1  0  0  0  0
  7 24  1  0  0  0  0
  8 12  1  0  0  0  0
  8 25  1  0  0  0  0
  8 26  1  0  0  0  0
  9 10  1  0  0  0  0
  9 27  1  0  0  0  0
 10 28  1  0  0  0  0
 10 29  1  0  0  0  0
 11 12  1  0  0  0  0
 11 30  1  0  0  0  0
 11 31  1  0  0  0  0
 12 32  1  0  0  0  0
 12 33  1  0  0  0  0
 13 14  1  0  0  0  0
 14 15  1  0  0  0  0
 14 16  1  0  0  0  0
 14 34  1  0  0  0  0
 15 35  1  0  0  0  0
 15 36  1  0  0  0  0
 15 37  1  0  0  0  0
 16 38  1  0  0  0  0
 16 39  1  0  0  0  0
 16 40  1  0  0  0  0
M  END
> <PUBCHEM_COMPOUND_CID>
106937

> <PUBCHEM_CONFORMER_RMSD>
0.6

> <PUBCHEM_CONFORMER_DIVERSEORDER>
1
119
52
140
76
182
59
57
154
115
124
71
110
2
3
46
151
63
44
26
22
116
77
83
136
114
45
163
55
79
125
96
179
84
39
127
164
166
149
174
169
31
16
185
102
176
161
50
37
78
145
27
120
178
38
15
23
89
62
126
25
121
171
186
132
70
113
130
56
40
86
101
173
68
43
183
123
170
41
5
134
80
29
191
153
73
47
162
58
17
72
167
147
141
42
150
30
148
19
105
11
32
180
157
74
159
36
184
66
18
129
54
12
99
158
87
135
67
24
109
49
64
28
53
155
104
172
21
4
13
107
131
33
65
48
82
111
85
122
112
20
9
187
100
34
81
188
177
8
175
165
117
152
139
6
142
91
69
95
35
181
144
10
61
93
75
189
7
146
92
97
190
106
14
133
94
160
156
128
60
138
98
118
88
137
51
103
108
168
90
143

> <PUBCHEM_MMFF94_PARTIAL_CHARGES>
5
1 -0.43
13 0.66
14 0.06
2 -0.57
9 0.28

> <PUBCHEM_EFFECTIVE_ROTOR_COUNT>
4.6

> <PUBCHEM_PHARMACOPHORE_FEATURES>
4
1 2 acceptor
3 14 15 16 hydrophobe
6 3 4 5 6 9 10 rings
6 3 4 7 8 11 12 rings

> <PUBCHEM_HEAVY_ATOM_COUNT>
16

> <PUBCHEM_ATOM_DEF_STEREO_COUNT>
0

> <PUBCHEM_ATOM_UDEF_STEREO_COUNT>
3

> <PUBCHEM_BOND_DEF_STEREO_COUNT>
0

> <PUBCHEM_BOND_UDEF_STEREO_COUNT>
0

> <PUBCHEM_ISOTOPIC_ATOM_COUNT>
0

> <PUBCHEM_COMPONENT_COUNT>
1

> <PUBCHEM_CACTVS_TAUTO_COUNT>
1

> <PUBCHEM_CONFORMER_ID>
0001A1B900000001

> <PUBCHEM_MMFF94_ENERGY>
22.4756

> <PUBCHEM_FEATURE_SELFOVERLAP>
20.314

> <PUBCHEM_SHAPE_FINGERPRINT>
10498660 4 18411699846572880461
11132069 177 18409729555984562620
12173636 292 18341046329067966245
12236239 1 17967810570332171456
12346645 44 18338234869214120619
12390115 104 18058746701757555881
12403814 3 17676201369041564973
12500047 106 18343579659640254150
12788726 201 17753894127460090986
14123260 362 18409455786263550961
14252887 29 11819275525402895184
14787075 74 17824269413225919691
14897335 6 18410293588406957518
15196674 1 18411982420902508519
15669948 3 18339354262024236495
15775835 57 18408605833673449464
16945 1 18341043120669496971
17834072 32 18190178984394281637
18186145 218 18267587905507657111
20233049 118 18343017792366764288
20279233 1 17275109453019535838
20300324 65 18202843270928156487
20510252 161 18272654528308673377
20645476 183 18261109707377279139
20645477 56 18341613741534443416
20645477 70 16343716404615772302
21524375 3 18339640049137497883
23366157 5 18044943359246174803
23402539 116 18342730840736818278
23402655 69 17917710171386394140
23557571 272 18058733635839293767
23559900 14 18202285788895474822
2748010 2 18195813968764859079
4028521 119 18202562869387392577
44154327 71 18335707091776323773
458136 41 18127143987052675635
474 4 17168714179571194572
4990 188 17274824640383718308
5104073 3 18410293571095246403
58051976 378 18341332206185695205
6333272 397 18334018272027978707
7364860 26 17984137054841862991
76465 3 7925327612307477249

> <PUBCHEM_SHAPE_MULTIPOLES>
317.53
9.02
2
0.93
4.77
0.36
-0.01
-3.81
0.53
-1.41
0.2
0.74
-0.2
-0.53

> <PUBCHEM_SHAPE_SELFOVERLAP>
638.87

> <PUBCHEM_SHAPE_VOLUME>
184.3

> <PUBCHEM_COORDINATE_TYPE>
2
5
10

$$$$
