107073
  -OEChem-11232109123D

 34 34  0     1  0  0  0  0  0999 V2000
    0.5808   -0.1864   -0.2847 O   0  0  0  0  0  0  0  0  0  0  0  0
    2.3662   -1.5963   -0.6893 O   0  0  0  0  0  0  0  0  0  0  0  0
   -1.7242   -0.7284    0.1182 C   0  0  0  0  0  0  0  0  0  0  0  0
   -1.8834    0.3788    1.1690 C   0  0  0  0  0  0  0  0  0  0  0  0
   -2.1427   -0.2277   -1.2707 C   0  0  0  0  0  0  0  0  0  0  0  0
   -3.2992    0.9507    1.1751 C   0  0  0  0  0  0  0  0  0  0  0  0
   -3.5580    0.3454   -1.2606 C   0  0  0  0  0  0  0  0  0  0  0  0
   -3.7148    1.4393   -0.2090 C   0  0  0  0  0  0  0  0  0  0  0  0
   -0.2875   -1.2470    0.0945 C   0  0  2  0  0  0  0  0  0  0  0  0
    0.1356   -1.7875    1.4492 C   0  0  0  0  0  0  0  0  0  0  0  0
    1.9028   -0.5086   -0.3852 C   0  0  0  0  0  0  0  0  0  0  0  0
    2.6924    0.6984   -0.0583 C   0  0  0  0  0  0  0  0  0  0  0  0
    4.0305    0.6490   -0.0826 C   0  0  0  0  0  0  0  0  0  0  0  0
    4.9016    1.8203    0.2342 C   0  0  0  0  0  0  0  0  0  0  0  0
   -2.3894   -1.5591    0.3926 H   0  0  0  0  0  0  0  0  0  0  0  0
   -1.1748    1.1950    0.9809 H   0  0  0  0  0  0  0  0  0  0  0  0
   -1.6744   -0.0016    2.1747 H   0  0  0  0  0  0  0  0  0  0  0  0
   -2.0916   -1.0491   -1.9954 H   0  0  0  0  0  0  0  0  0  0  0  0
   -1.4539    0.5499   -1.6237 H   0  0  0  0  0  0  0  0  0  0  0  0
   -3.3598    1.7782    1.8911 H   0  0  0  0  0  0  0  0  0  0  0  0
   -4.0023    0.1809    1.5166 H   0  0  0  0  0  0  0  0  0  0  0  0
   -4.2758   -0.4596   -1.0599 H   0  0  0  0  0  0  0  0  0  0  0  0
   -3.7995    0.7485   -2.2506 H   0  0  0  0  0  0  0  0  0  0  0  0
   -4.7561    1.7796   -0.1829 H   0  0  0  0  0  0  0  0  0  0  0  0
   -3.1023    2.3051   -0.4892 H   0  0  0  0  0  0  0  0  0  0  0  0
   -0.2221   -2.0479   -0.6538 H   0  0  0  0  0  0  0  0  0  0  0  0
   -0.6322   -2.4405    1.8771 H   0  0  0  0  0  0  0  0  0  0  0  0
    1.0488   -2.3869    1.3683 H   0  0  0  0  0  0  0  0  0  0  0  0
    0.3621   -0.9873    2.1620 H   0  0  0  0  0  0  0  0  0  0  0  0
    2.1637    1.6101    0.1985 H   0  0  0  0  0  0  0  0  0  0  0  0
    4.5455   -0.2724   -0.3413 H   0  0  0  0  0  0  0  0  0  0  0  0
    5.5491    1.5838    1.0840 H   0  0  0  0  0  0  0  0  0  0  0  0
    4.3212    2.7136    0.4858 H   0  0  0  0  0  0  0  0  0  0  0  0
    5.5354    2.0564   -0.6260 H   0  0  0  0  0  0  0  0  0  0  0  0
  1  9  1  0  0  0  0
  1 11  1  0  0  0  0
  2 11  2  0  0  0  0
  3  4  1  0  0  0  0
  3  5  1  0  0  0  0
  3  9  1  0  0  0  0
  3 15  1  0  0  0  0
  4  6  1  0  0  0  0
  4 16  1  0  0  0  0
  4 17  1  0  0  0  0
  5  7  1  0  0  0  0
  5 18  1  0  0  0  0
  5 19  1  0  0  0  0
  6  8  1  0  0  0  0
  6 20  1  0  0  0  0
  6 21  1  0  0  0  0
  7  8  1  0  0  0  0
  7 22  1  0  0  0  0
  7 23  1  0  0  0  0
  8 24  1  0  0  0  0
  8 25  1  0  0  0  0
  9 10  1  0  0  0  0
  9 26  1  0  0  0  0
 10 27  1  0  0  0  0
 10 28  1  0  0  0  0
 10 29  1  0  0  0  0
 11 12  1  0  0  0  0
 12 13  2  3  0  0  0
 12 30  1  0  0  0  0
 13 14  1  0  0  0  0
 13 31  1  0  0  0  0
 14 32  1  0  0  0  0
 14 33  1  0  0  0  0
 14 34  1  0  0  0  0
M  END
> <PUBCHEM_COMPOUND_CID>
107073

> <PUBCHEM_CONFORMER_RMSD>
0.6

> <PUBCHEM_CONFORMER_DIVERSEORDER>
2
30
37
43
19
24
40
14
39
3
26
6
28
33
8
25
1
23
12
18
41
31
35
16
21
42
13
15
29
22
32
4
7
10
5
17
20
27
11
38
34
36
9

> <PUBCHEM_MMFF94_PARTIAL_CHARGES>
9
1 -0.43
11 0.71
12 -0.14
13 -0.29
14 0.14
2 -0.57
30 0.15
31 0.15
9 0.28

> <PUBCHEM_EFFECTIVE_ROTOR_COUNT>
5.2

> <PUBCHEM_PHARMACOPHORE_FEATURES>
3
1 14 hydrophobe
1 2 acceptor
6 3 4 5 6 7 8 rings

> <PUBCHEM_HEAVY_ATOM_COUNT>
14

> <PUBCHEM_ATOM_DEF_STEREO_COUNT>
0

> <PUBCHEM_ATOM_UDEF_STEREO_COUNT>
0

> <PUBCHEM_BOND_DEF_STEREO_COUNT>
0

> <PUBCHEM_BOND_UDEF_STEREO_COUNT>
1

> <PUBCHEM_ISOTOPIC_ATOM_COUNT>
0

> <PUBCHEM_COMPONENT_COUNT>
1

> <PUBCHEM_CACTVS_TAUTO_COUNT>
1

> <PUBCHEM_CONFORMER_ID>
0001A24100000002

> <PUBCHEM_MMFF94_ENERGY>
20.3045

> <PUBCHEM_FEATURE_SELFOVERLAP>
15.223

> <PUBCHEM_SHAPE_FINGERPRINT>
10465860 71 14692568818757192802
11046707 91 9223239541714805004
11127187 94 14117516536970805221
11132069 177 16877949313068594951
11543360 7 16558749044289348004
12006461 19 8646766703236338604
122479 349 18334860575629407800
12251169 10 13767925706490718511
13675066 3 16225758615059778280
14123255 352 18336545018853628836
14123260 362 18271815647944248660
14251710 61 9583514321801591212
14897335 6 18342738520423316198
15239191 94 8718834180257810652
15775835 57 18342176635511040493
17780758 139 13190876750433367684
18186145 218 18335711498497087494
19782 4 17895185584959795861
200 152 14045748131749992188
20112054 13 18040437685059221516
20300324 65 17489867171857574637
20325693 3 15267068047171020977
20361792 2 10952044550598899563
204376 136 18040998461927905194
20645464 45 17894916247370687867
20645476 183 17131826577733592037
20645477 56 18259989296564728308
20871999 31 15195569009086855769
21499 59 18342175561537120974
21524375 3 18261391186696195938
22079108 93 18337124414378758209
22926399 37 18343861121811262093
23402655 69 17775006752009283248
23403322 49 11311784959650464708
23500284 214 18334019414552615648
23557571 272 17916870260635916655
23559900 14 14835837306219537958
27216 239 17894634794159139497
305870 269 17894907404191482754
3082319 5 17489869310571712774
328317 168 18409442609261792893
3286 77 11674884411294932076
4028521 119 18272931617760225792
474 4 18410856581341804192
633830 44 18340494343939132991
81228 2 17462025437187909683
83771 10 9799692610121107022
90316 7 13912606031017267183

> <PUBCHEM_SHAPE_MULTIPOLES>
276.37
8.34
1.71
1.25
6.47
0.22
-0.11
-5.93
0.44
0.74
-0.34
-1.06
0.13
0.18

> <PUBCHEM_SHAPE_SELFOVERLAP>
541.456

> <PUBCHEM_SHAPE_VOLUME>
164.2

> <PUBCHEM_COORDINATE_TYPE>
2
5
10

$$$$
