107065
  -OEChem-11232108513D

 44 46  0     1  0  0  0  0  0999 V2000
    3.6674   -1.5394    0.3925 O   0  0  0  0  0  0  0  0  0  0  0  0
   -0.8743   -0.7945    0.0407 C   0  0  1  0  0  0  0  0  0  0  0  0
   -1.2425    0.4051   -0.8978 C   0  0  2  0  0  0  0  0  0  0  0  0
   -0.8836    1.6960   -0.0890 C   0  0  0  0  0  0  0  0  0  0  0  0
   -0.0131    1.1339    1.0863 C   0  0  1  0  0  0  0  0  0  0  0  0
   -0.7719   -0.1557    1.4343 C   0  0  0  0  0  0  0  0  0  0  0  0
   -2.0072   -1.8131   -0.1537 C   0  0  2  0  0  0  0  0  0  0  0  0
   -2.7014    0.1668   -1.3179 C   0  0  0  0  0  0  0  0  0  0  0  0
    0.5224   -1.3613   -0.3076 C   0  0  0  0  0  0  0  0  0  0  0  0
   -3.2316   -0.9319   -0.4035 C   0  0  0  0  0  0  0  0  0  0  0  0
    1.4219    0.7642    0.6824 C   0  0  0  0  0  0  0  0  0  0  0  0
    1.6454   -0.4026    0.0370 C   0  0  0  0  0  0  0  0  0  0  0  0
   -2.1053    2.4440    0.4903 C   0  0  0  0  0  0  0  0  0  0  0  0
   -0.1397    2.7012   -0.9864 C   0  0  0  0  0  0  0  0  0  0  0  0
   -2.2154   -2.7916    0.9929 C   0  0  0  0  0  0  0  0  0  0  0  0
    2.4587    1.7744    1.0933 C   0  0  0  0  0  0  0  0  0  0  0  0
    2.9862   -0.8500   -0.3659 C   0  0  0  0  0  0  0  0  0  0  0  0
    3.4841   -0.4455   -1.7280 C   0  0  0  0  0  0  0  0  0  0  0  0
   -0.6331    0.3672   -1.8111 H   0  0  0  0  0  0  0  0  0  0  0  0
   -0.0001    1.8047    1.9531 H   0  0  0  0  0  0  0  0  0  0  0  0
   -0.2337   -0.7857    2.1532 H   0  0  0  0  0  0  0  0  0  0  0  0
   -1.7500    0.0617    1.8739 H   0  0  0  0  0  0  0  0  0  0  0  0
   -1.8123   -2.3940   -1.0661 H   0  0  0  0  0  0  0  0  0  0  0  0
   -2.7085   -0.2084   -2.3499 H   0  0  0  0  0  0  0  0  0  0  0  0
   -3.3358    1.0550   -1.3143 H   0  0  0  0  0  0  0  0  0  0  0  0
    0.5669   -1.6119   -1.3750 H   0  0  0  0  0  0  0  0  0  0  0  0
    0.6882   -2.2941    0.2464 H   0  0  0  0  0  0  0  0  0  0  0  0
   -3.6136   -0.5016    0.5290 H   0  0  0  0  0  0  0  0  0  0  0  0
   -4.0486   -1.4887   -0.8734 H   0  0  0  0  0  0  0  0  0  0  0  0
   -2.6964    2.9188   -0.3007 H   0  0  0  0  0  0  0  0  0  0  0  0
   -2.7758    1.7921    1.0565 H   0  0  0  0  0  0  0  0  0  0  0  0
   -1.7813    3.2436    1.1670 H   0  0  0  0  0  0  0  0  0  0  0  0
    0.7382    2.2599   -1.4694 H   0  0  0  0  0  0  0  0  0  0  0  0
   -0.7938    3.0625   -1.7886 H   0  0  0  0  0  0  0  0  0  0  0  0
    0.1932    3.5718   -0.4108 H   0  0  0  0  0  0  0  0  0  0  0  0
   -3.0225   -3.4919    0.7526 H   0  0  0  0  0  0  0  0  0  0  0  0
   -1.3091   -3.3764    1.1781 H   0  0  0  0  0  0  0  0  0  0  0  0
   -2.4886   -2.2834    1.9229 H   0  0  0  0  0  0  0  0  0  0  0  0
    2.2477    2.7516    0.6502 H   0  0  0  0  0  0  0  0  0  0  0  0
    3.4677    1.4861    0.7844 H   0  0  0  0  0  0  0  0  0  0  0  0
    2.4672    1.8829    2.1827 H   0  0  0  0  0  0  0  0  0  0  0  0
    2.7442    0.1690   -2.2490 H   0  0  0  0  0  0  0  0  0  0  0  0
    3.6730   -1.3427   -2.3231 H   0  0  0  0  0  0  0  0  0  0  0  0
    4.4032    0.1356   -1.6175 H   0  0  0  0  0  0  0  0  0  0  0  0
  1 17  2  0  0  0  0
  2  3  1  0  0  0  0
  2  6  1  0  0  0  0
  2  7  1  0  0  0  0
  2  9  1  0  0  0  0
  3  4  1  0  0  0  0
  3  8  1  0  0  0  0
  3 19  1  0  0  0  0
  4  5  1  0  0  0  0
  4 13  1  0  0  0  0
  4 14  1  0  0  0  0
  5  6  1  0  0  0  0
  5 11  1  0  0  0  0
  5 20  1  0  0  0  0
  6 21  1  0  0  0  0
  6 22  1  0  0  0  0
  7 10  1  0  0  0  0
  7 15  1  0  0  0  0
  7 23  1  0  0  0  0
  8 10  1  0  0  0  0
  8 24  1  0  0  0  0
  8 25  1  0  0  0  0
  9 12  1  0  0  0  0
  9 26  1  0  0  0  0
  9 27  1  0  0  0  0
 10 28  1  0  0  0  0
 10 29  1  0  0  0  0
 11 12  2  0  0  0  0
 11 16  1  0  0  0  0
 12 17  1  0  0  0  0
 13 30  1  0  0  0  0
 13 31  1  0  0  0  0
 13 32  1  0  0  0  0
 14 33  1  0  0  0  0
 14 34  1  0  0  0  0
 14 35  1  0  0  0  0
 15 36  1  0  0  0  0
 15 37  1  0  0  0  0
 15 38  1  0  0  0  0
 16 39  1  0  0  0  0
 16 40  1  0  0  0  0
 16 41  1  0  0  0  0
 17 18  1  0  0  0  0
 18 42  1  0  0  0  0
 18 43  1  0  0  0  0
 18 44  1  0  0  0  0
M  END
> <PUBCHEM_COMPOUND_CID>
107065

> <PUBCHEM_CONFORMER_RMSD>
0.6

> <PUBCHEM_CONFORMER_DIVERSEORDER>
5
1
7
4
2
6
8
3

> <PUBCHEM_MMFF94_PARTIAL_CHARGES>
8
1 -0.57
11 -0.28
12 -0.12
16 0.14
17 0.49
18 0.06
5 0.14
9 0.14

> <PUBCHEM_EFFECTIVE_ROTOR_COUNT>
2.2

> <PUBCHEM_PHARMACOPHORE_FEATURES>
4
1 1 acceptor
3 4 13 14 hydrophobe
5 2 3 7 8 10 rings
8 2 3 4 5 6 9 11 12 rings

> <PUBCHEM_HEAVY_ATOM_COUNT>
18

> <PUBCHEM_ATOM_DEF_STEREO_COUNT>
0

> <PUBCHEM_ATOM_UDEF_STEREO_COUNT>
4

> <PUBCHEM_BOND_DEF_STEREO_COUNT>
0

> <PUBCHEM_BOND_UDEF_STEREO_COUNT>
0

> <PUBCHEM_ISOTOPIC_ATOM_COUNT>
0

> <PUBCHEM_COMPONENT_COUNT>
1

> <PUBCHEM_CACTVS_TAUTO_COUNT>
8

> <PUBCHEM_CONFORMER_ID>
0001A23900000005

> <PUBCHEM_MMFF94_ENERGY>
70.7124

> <PUBCHEM_FEATURE_SELFOVERLAP>
20.356

> <PUBCHEM_SHAPE_FINGERPRINT>
10863032 1 18270675480198116797
10948715 1 17831873356069745633
11206711 2 18341894035152483332
11315181 36 18187927236768855234
11578080 2 16127501875150885163
12403814 3 18044104457543407924
12423570 1 14999892145837833947
13024252 1 15647634271271743497
13140716 1 18339921614276919115
13299463 15 18269827636426349700
14115302 16 18186798045983225054
14817 1 11999466333983412041
15001771 113 18264218074230570709
15219456 202 18268699670497832338
16945 1 18200303321600346343
18981168 100 13190344586541429084
19868273 325 18335426759260647524
20645476 183 17975435528593577694
21501502 16 18342737403679305656
21524375 3 17834113048407377893
22182313 1 18267578185817298492
22721475 48 18343584044606580614
22802520 49 18413384341193407136
2334 1 18195521725661610938
23402539 116 18338783521152952575
23419403 2 17270556327649612944
23557571 272 18264199373958846736
23558518 356 18413102844911295425
23559900 14 17984695616340936602
27216 239 11964546399004982054
2748010 2 18268421511246547046
7364860 26 17617660298997954437
81228 2 18409162212459030289
84936 31 17558836328075034356
8809292 202 18409725153701333835

> <PUBCHEM_SHAPE_MULTIPOLES>
364.56
4.93
2.79
1.35
2.77
0.69
-0.12
-2.27
-1.04
-1.08
0.34
0.24
0.13
0.7

> <PUBCHEM_SHAPE_SELFOVERLAP>
777.358

> <PUBCHEM_SHAPE_VOLUME>
208.7

> <PUBCHEM_COORDINATE_TYPE>
2
5
10

$$$$
