107071
  -OEChem-11232109153D

 39 41  0     1  0  0  0  0  0999 V2000
    1.0655    0.0295    0.5358 O   0  0  0  0  0  0  0  0  0  0  0  0
    2.4807    1.6663   -0.2451 O   0  0  0  0  0  0  0  0  0  0  0  0
   -1.2680    0.3623    1.2380 C   0  0  2  0  0  0  0  0  0  0  0  0
   -1.8958    1.3941   -0.6348 C   0  0  1  0  0  0  0  0  0  0  0  0
   -1.6793   -0.8194    0.3212 C   0  0  2  0  0  0  0  0  0  0  0  0
   -2.1057   -0.0967   -0.9830 C   0  0  1  0  0  0  0  0  0  0  0  0
   -2.2614    1.4610    0.8537 C   0  0  0  0  0  0  0  0  0  0  0  0
    0.0478    0.9914    0.7287 C   0  0  2  0  0  0  0  0  0  0  0  0
   -0.3765    1.6631   -0.5892 C   0  0  0  0  0  0  0  0  0  0  0  0
   -2.9037   -1.6113    0.8075 C   0  0  0  0  0  0  0  0  0  0  0  0
   -3.5297   -0.5065   -1.1733 C   0  0  0  0  0  0  0  0  0  0  0  0
   -3.9540   -1.3329   -0.2145 C   0  0  0  0  0  0  0  0  0  0  0  0
    2.2580    0.4946    0.0352 C   0  0  0  0  0  0  0  0  0  0  0  0
    3.2713   -0.6431   -0.1268 C   0  0  0  0  0  0  0  0  0  0  0  0
    2.7110   -1.6942   -1.0942 C   0  0  0  0  0  0  0  0  0  0  0  0
    4.5827   -0.0840   -0.7018 C   0  0  0  0  0  0  0  0  0  0  0  0
    3.5571   -1.2741    1.2426 C   0  0  0  0  0  0  0  0  0  0  0  0
   -1.2360    0.0990    2.2977 H   0  0  0  0  0  0  0  0  0  0  0  0
   -2.4423    2.0871   -1.2787 H   0  0  0  0  0  0  0  0  0  0  0  0
   -0.8428   -1.5068    0.1517 H   0  0  0  0  0  0  0  0  0  0  0  0
   -1.5038   -0.4125   -1.8421 H   0  0  0  0  0  0  0  0  0  0  0  0
   -2.0301    2.4307    1.3082 H   0  0  0  0  0  0  0  0  0  0  0  0
   -3.3043    1.2113    1.0675 H   0  0  0  0  0  0  0  0  0  0  0  0
    0.3948    1.7446    1.4487 H   0  0  0  0  0  0  0  0  0  0  0  0
    0.1299    1.2748   -1.4787 H   0  0  0  0  0  0  0  0  0  0  0  0
   -0.1945    2.7427   -0.5310 H   0  0  0  0  0  0  0  0  0  0  0  0
   -3.2312   -1.3068    1.8063 H   0  0  0  0  0  0  0  0  0  0  0  0
   -2.6826   -2.6837    0.8314 H   0  0  0  0  0  0  0  0  0  0  0  0
   -4.1408   -0.1760   -2.0010 H   0  0  0  0  0  0  0  0  0  0  0  0
   -4.9508   -1.7480   -0.1720 H   0  0  0  0  0  0  0  0  0  0  0  0
    2.4513   -1.2424   -2.0586 H   0  0  0  0  0  0  0  0  0  0  0  0
    3.4386   -2.4923   -1.2786 H   0  0  0  0  0  0  0  0  0  0  0  0
    1.8011   -2.1607   -0.7000 H   0  0  0  0  0  0  0  0  0  0  0  0
    4.4197    0.3849   -1.6792 H   0  0  0  0  0  0  0  0  0  0  0  0
    5.3300   -0.8749   -0.8309 H   0  0  0  0  0  0  0  0  0  0  0  0
    5.0131    0.6781   -0.0417 H   0  0  0  0  0  0  0  0  0  0  0  0
    2.6575   -1.7303    1.6712 H   0  0  0  0  0  0  0  0  0  0  0  0
    4.3212   -2.0558    1.1681 H   0  0  0  0  0  0  0  0  0  0  0  0
    3.9104   -0.5214    1.9567 H   0  0  0  0  0  0  0  0  0  0  0  0
  1  8  1  0  0  0  0
  1 13  1  0  0  0  0
  2 13  2  0  0  0  0
  3  5  1  0  0  0  0
  3  7  1  0  0  0  0
  3  8  1  0  0  0  0
  3 18  1  0  0  0  0
  4  6  1  0  0  0  0
  4  7  1  0  0  0  0
  4  9  1  0  0  0  0
  4 19  1  0  0  0  0
  5  6  1  0  0  0  0
  5 10  1  0  0  0  0
  5 20  1  0  0  0  0
  6 11  1  0  0  0  0
  6 21  1  0  0  0  0
  7 22  1  0  0  0  0
  7 23  1  0  0  0  0
  8  9  1  0  0  0  0
  8 24  1  0  0  0  0
  9 25  1  0  0  0  0
  9 26  1  0  0  0  0
 10 12  1  0  0  0  0
 10 27  1  0  0  0  0
 10 28  1  0  0  0  0
 11 12  2  0  0  0  0
 11 29  1  0  0  0  0
 12 30  1  0  0  0  0
 13 14  1  0  0  0  0
 14 15  1  0  0  0  0
 14 16  1  0  0  0  0
 14 17  1  0  0  0  0
 15 31  1  0  0  0  0
 15 32  1  0  0  0  0
 15 33  1  0  0  0  0
 16 34  1  0  0  0  0
 16 35  1  0  0  0  0
 16 36  1  0  0  0  0
 17 37  1  0  0  0  0
 17 38  1  0  0  0  0
 17 39  1  0  0  0  0
M  END
> <PUBCHEM_COMPOUND_CID>
107071

> <PUBCHEM_CONFORMER_RMSD>
0.6

> <PUBCHEM_CONFORMER_DIVERSEORDER>
1
19
17
25
30
28
12
2
32
20
3
18
29
26
8
15
31
5
11
22
13
7
9
16
10
14
4
24
23
6
21
27

> <PUBCHEM_MMFF94_PARTIAL_CHARGES>
11
1 -0.43
10 0.14
11 -0.29
12 -0.29
13 0.66
14 0.06
2 -0.57
29 0.15
30 0.15
6 0.14
8 0.28

> <PUBCHEM_EFFECTIVE_ROTOR_COUNT>
3.8

> <PUBCHEM_PHARMACOPHORE_FEATURES>
4
1 2 acceptor
4 14 15 16 17 hydrophobe
5 5 6 10 11 12 rings
7 3 4 5 6 7 8 9 rings

> <PUBCHEM_HEAVY_ATOM_COUNT>
17

> <PUBCHEM_ATOM_DEF_STEREO_COUNT>
0

> <PUBCHEM_ATOM_UDEF_STEREO_COUNT>
5

> <PUBCHEM_BOND_DEF_STEREO_COUNT>
0

> <PUBCHEM_BOND_UDEF_STEREO_COUNT>
0

> <PUBCHEM_ISOTOPIC_ATOM_COUNT>
0

> <PUBCHEM_COMPONENT_COUNT>
1

> <PUBCHEM_CACTVS_TAUTO_COUNT>
1

> <PUBCHEM_CONFORMER_ID>
0001A23F00000001

> <PUBCHEM_MMFF94_ENERGY>
55.8461

> <PUBCHEM_FEATURE_SELFOVERLAP>
20.38

> <PUBCHEM_SHAPE_FINGERPRINT>
10618630 7 18273217507947174238
11127187 94 18040714783849418359
11543360 7 16660365925765468214
11578080 2 17345735478476037561
11769659 78 18343298206148721517
12077114 3 11599736047021763771
122479 349 9295297152974728719
12491281 212 11818988569852541141
12553582 1 17988922331261434255
12670546 177 17531250612046969654
128620 24 18343302582994605382
13024252 1 14923952232456832809
13224815 77 18131630076077053842
13288520 33 18272376347719506630
13296908 3 18260544567148285793
13693222 15 16486965185638917642
13764800 53 9079111197974630711
14178342 30 17986108513887281474
14289901 80 17203319014342032154
15239191 94 18059859462958285670
15309172 13 13326851123835180740
16945 1 18189048694708660657
18186145 218 17385712621691769821
19107657 162 18202563956188367174
19862831 5 16877936127123350930
200 152 18273493489665806156
20281475 54 18339082584305342778
20645476 183 14418131850430641289
20645477 70 18340482382355006599
20671657 53 18259980491776497325
20871999 31 18187361013232443277
21524375 3 16811220862617278069
22079108 93 11242250715461037991
22646028 28 18343584027627184510
23402539 116 18113336376113318924
23557571 272 18409728431093716124
23559900 14 18336817684657217216
25 1 10809333434497468980
27216 239 9150877382834651151
2871803 45 18408322198502600038
3082319 5 17967250875726668106
465052 167 17844815982819448807
4921388 177 16009038306072609539
5262128 65 18187091667127442404
7364860 26 18198622323120264872
83771 10 17988644129075994793
90316 7 15841565080228457227
9709674 26 18412830166080166046

> <PUBCHEM_SHAPE_MULTIPOLES>
338.11
7.68
1.85
1.23
4.7
0.09
0.06
-3.26
-1.12
-0.39
-0.01
-0.11
-0.15
-0.09

> <PUBCHEM_SHAPE_SELFOVERLAP>
725.804

> <PUBCHEM_SHAPE_VOLUME>
194.4

> <PUBCHEM_COORDINATE_TYPE>
2
5
10

$$$$
