107059
  -OEChem-11232108493D

 32 31  0     1  0  0  0  0  0999 V2000
   -0.3892    0.1354    0.3358 O   0  0  0  0  0  0  0  0  0  0  0  0
   -1.6331    0.8004   -1.4897 O   0  0  0  0  0  0  0  0  0  0  0  0
   -2.7312    0.2174    0.6013 C   0  0  1  0  0  0  0  0  0  0  0  0
    2.0034   -0.0444    0.4614 C   0  0  0  0  0  0  0  0  0  0  0  0
    3.3251    0.1058   -0.2888 C   0  0  0  0  0  0  0  0  0  0  0  0
   -3.7034   -0.8374    0.0533 C   0  0  0  0  0  0  0  0  0  0  0  0
    0.8138    0.3107   -0.4192 C   0  0  0  0  0  0  0  0  0  0  0  0
    4.5111   -0.2928    0.5889 C   0  0  0  0  0  0  0  0  0  0  0  0
   -1.5475    0.4187   -0.3296 C   0  0  0  0  0  0  0  0  0  0  0  0
   -3.4308    1.5610    0.7865 C   0  0  0  0  0  0  0  0  0  0  0  0
   -3.0444   -2.1980   -0.1345 C   0  0  0  0  0  0  0  0  0  0  0  0
    5.8262   -0.1769   -0.1654 C   0  0  0  0  0  0  0  0  0  0  0  0
   -2.3639   -0.1165    1.5801 H   0  0  0  0  0  0  0  0  0  0  0  0
    1.9985    0.5923    1.3548 H   0  0  0  0  0  0  0  0  0  0  0  0
    1.8882   -1.0729    0.8259 H   0  0  0  0  0  0  0  0  0  0  0  0
    3.4445    1.1442   -0.6211 H   0  0  0  0  0  0  0  0  0  0  0  0
    3.3089   -0.5214   -1.1885 H   0  0  0  0  0  0  0  0  0  0  0  0
   -4.5500   -0.9454    0.7418 H   0  0  0  0  0  0  0  0  0  0  0  0
   -4.1135   -0.5111   -0.9105 H   0  0  0  0  0  0  0  0  0  0  0  0
    0.7862   -0.3442   -1.2980 H   0  0  0  0  0  0  0  0  0  0  0  0
    0.8861    1.3541   -0.7477 H   0  0  0  0  0  0  0  0  0  0  0  0
    4.5474    0.3469    1.4784 H   0  0  0  0  0  0  0  0  0  0  0  0
    4.3875   -1.3252    0.9364 H   0  0  0  0  0  0  0  0  0  0  0  0
   -3.8350    1.9375   -0.1598 H   0  0  0  0  0  0  0  0  0  0  0  0
   -4.2582    1.4740    1.4984 H   0  0  0  0  0  0  0  0  0  0  0  0
   -2.7327    2.3137    1.1690 H   0  0  0  0  0  0  0  0  0  0  0  0
   -2.2551   -2.1630   -0.8914 H   0  0  0  0  0  0  0  0  0  0  0  0
   -3.7873   -2.9321   -0.4628 H   0  0  0  0  0  0  0  0  0  0  0  0
   -2.6082   -2.5547    0.8040 H   0  0  0  0  0  0  0  0  0  0  0  0
    5.8345   -0.8315   -1.0427 H   0  0  0  0  0  0  0  0  0  0  0  0
    5.9962    0.8510   -0.5015 H   0  0  0  0  0  0  0  0  0  0  0  0
    6.6608   -0.4653    0.4815 H   0  0  0  0  0  0  0  0  0  0  0  0
  1  7  1  0  0  0  0
  1  9  1  0  0  0  0
  2  9  2  0  0  0  0
  3  6  1  0  0  0  0
  3  9  1  0  0  0  0
  3 10  1  0  0  0  0
  3 13  1  0  0  0  0
  4  5  1  0  0  0  0
  4  7  1  0  0  0  0
  4 14  1  0  0  0  0
  4 15  1  0  0  0  0
  5  8  1  0  0  0  0
  5 16  1  0  0  0  0
  5 17  1  0  0  0  0
  6 11  1  0  0  0  0
  6 18  1  0  0  0  0
  6 19  1  0  0  0  0
  7 20  1  0  0  0  0
  7 21  1  0  0  0  0
  8 12  1  0  0  0  0
  8 22  1  0  0  0  0
  8 23  1  0  0  0  0
 10 24  1  0  0  0  0
 10 25  1  0  0  0  0
 10 26  1  0  0  0  0
 11 27  1  0  0  0  0
 11 28  1  0  0  0  0
 11 29  1  0  0  0  0
 12 30  1  0  0  0  0
 12 31  1  0  0  0  0
 12 32  1  0  0  0  0
M  END
> <PUBCHEM_COMPOUND_CID>
107059

> <PUBCHEM_CONFORMER_RMSD>
0.8

> <PUBCHEM_CONFORMER_DIVERSEORDER>
1
145
41
227
94
192
157
55
43
242
35
59
206
19
65
208
232
233
249
88
266
45
37
117
13
276
89
130
160
81
274
225
243
104
20
178
15
86
193
77
269
91
173
22
263
271
34
273
172
121
100
119
123
71
131
219
52
224
132
187
98
189
83
25
8
231
7
253
217
67
90
186
46
49
204
68
151
102
129
268
4
223
237
181
191
44
3
38
62
248
118
251
198
63
182
150
213
236
166
110
32
199
33
247
156
149
128
106
58
109
202
138
179
144
24
79
82
9
10
78
196
23
214
111
31
85
57
93
56
92
51
27
162
137
234
246
238
216
168
6
164
47
169
245
184
122
2
275
39
218
99
203
21
14
177
230
16
201
200
252
211
12
76
239
53
175
87
222
212
171
107
141
207
228
54
254
135
185
120
60
161
48
262
256
250
152
197
75
188
101
134
28
267
17
260
113
127
240
103
64
42
226
126
147
195
26
174
235
80
36
97
29
124
259
11
73
167
50
165
221
190
133
142
210
229
114
69
170
220
112
163
244
115
5
215
154
209
176
74
96
270
125
194
158
40
159
66
265
70
153
264
139
146
255
261
148
84
108
140
180
18
183
61
241
30
257
95
105
205
272
72
136
116
143
258
155

> <PUBCHEM_MMFF94_PARTIAL_CHARGES>
5
1 -0.43
2 -0.57
3 0.06
7 0.28
9 0.66

> <PUBCHEM_EFFECTIVE_ROTOR_COUNT>
7

> <PUBCHEM_PHARMACOPHORE_FEATURES>
4
1 10 hydrophobe
1 11 hydrophobe
1 12 hydrophobe
1 2 acceptor

> <PUBCHEM_HEAVY_ATOM_COUNT>
12

> <PUBCHEM_ATOM_DEF_STEREO_COUNT>
0

> <PUBCHEM_ATOM_UDEF_STEREO_COUNT>
1

> <PUBCHEM_BOND_DEF_STEREO_COUNT>
0

> <PUBCHEM_BOND_UDEF_STEREO_COUNT>
0

> <PUBCHEM_ISOTOPIC_ATOM_COUNT>
0

> <PUBCHEM_COMPONENT_COUNT>
1

> <PUBCHEM_CACTVS_TAUTO_COUNT>
1

> <PUBCHEM_CONFORMER_ID>
0001A23300000001

> <PUBCHEM_MMFF94_ENERGY>
4.1828

> <PUBCHEM_FEATURE_SELFOVERLAP>
20.297

> <PUBCHEM_SHAPE_FINGERPRINT>
10680689 15 17894630331656256076
10912923 1 18260266352616255416
11046707 91 18261388983404294931
12091667 2 17167580471671919340
124424 183 17275382084152292417
12500047 106 18343017749190042985
12757275 245 18337391646722292515
12932764 1 17894901923723418576
13214271 11 17917711283930850797
13675066 3 17346880048715835088
14123238 8 18113620093099744752
17834072 33 18334861662493562684
1986462 14 18410573985415208300
200 152 16805035237657908151
20645477 56 18341898433595068521
20645477 70 14346059898849935864
20828058 21 18131072640945900212
20828058 44 18413672409250950298
22485316 2 18408321064768143602
23380061 127 18342738515869821129
23402539 116 17095519591498667998
57265010 4 18272093790252801499
7062679 117 18261115227053670290

> <PUBCHEM_SHAPE_MULTIPOLES>
235.22
10.8
1.38
0.91
14.94
0.54
0.17
1.53
-1.17
-2.34
-0.09
-0.23
-0.18
-0.29

> <PUBCHEM_SHAPE_SELFOVERLAP>
429.651

> <PUBCHEM_SHAPE_VOLUME>
150.7

> <PUBCHEM_COORDINATE_TYPE>
2
5
10

$$$$
