107099
  -OEChem-11232109493D

 33 33  0     1  0  0  0  0  0999 V2000
    2.8491   -2.2995    1.1646 N   0  0  0  0  0  0  0  0  0  0  0  0
    2.7087   -0.6080   -0.8532 C   0  0  1  0  0  0  0  0  0  0  0  0
    1.2475   -0.2323   -1.1574 C   0  0  0  0  0  0  0  0  0  0  0  0
    3.5455    0.6454   -0.5774 C   0  0  0  0  0  0  0  0  0  0  0  0
    0.6850    0.8555   -0.2719 C   0  0  0  0  0  0  0  0  0  0  0  0
    2.9650    1.5043    0.5505 C   0  0  0  0  0  0  0  0  0  0  0  0
   -0.8041    1.0353   -0.3126 C   0  0  0  0  0  0  0  0  0  0  0  0
    1.4711    1.6219    0.5032 C   0  0  0  0  0  0  0  0  0  0  0  0
   -1.5048    0.1348    0.7001 C   0  0  0  0  0  0  0  0  0  0  0  0
    2.7874   -1.5552    0.2767 C   0  0  0  0  0  0  0  0  0  0  0  0
   -2.9831    0.4055    0.7251 C   0  0  0  0  0  0  0  0  0  0  0  0
   -3.9486   -0.2300    0.0347 C   0  0  0  0  0  0  0  0  0  0  0  0
   -5.4146    0.0911    0.1054 C   0  0  0  0  0  0  0  0  0  0  0  0
   -3.6038   -1.3687   -0.8878 C   0  0  0  0  0  0  0  0  0  0  0  0
    3.1215   -1.1146   -1.7351 H   0  0  0  0  0  0  0  0  0  0  0  0
    0.6164   -1.1281   -1.0938 H   0  0  0  0  0  0  0  0  0  0  0  0
    1.1852    0.1239   -2.1943 H   0  0  0  0  0  0  0  0  0  0  0  0
    3.5859    1.2486   -1.4944 H   0  0  0  0  0  0  0  0  0  0  0  0
    4.5816    0.3787   -0.3346 H   0  0  0  0  0  0  0  0  0  0  0  0
    3.4078    2.5056    0.4955 H   0  0  0  0  0  0  0  0  0  0  0  0
    3.2491    1.0866    1.5237 H   0  0  0  0  0  0  0  0  0  0  0  0
   -1.0534    2.0852   -0.1055 H   0  0  0  0  0  0  0  0  0  0  0  0
   -1.1728    0.8405   -1.3279 H   0  0  0  0  0  0  0  0  0  0  0  0
    1.0237    2.3811    1.1398 H   0  0  0  0  0  0  0  0  0  0  0  0
   -1.2893   -0.9218    0.5087 H   0  0  0  0  0  0  0  0  0  0  0  0
   -1.1154    0.3280    1.7086 H   0  0  0  0  0  0  0  0  0  0  0  0
   -3.2842    1.2274    1.3733 H   0  0  0  0  0  0  0  0  0  0  0  0
   -5.9806   -0.7828    0.4435 H   0  0  0  0  0  0  0  0  0  0  0  0
   -5.6143    0.9101    0.8042 H   0  0  0  0  0  0  0  0  0  0  0  0
   -5.7881    0.3923   -0.8785 H   0  0  0  0  0  0  0  0  0  0  0  0
   -2.5392   -1.4648   -1.1112 H   0  0  0  0  0  0  0  0  0  0  0  0
   -4.1056   -1.2300   -1.8523 H   0  0  0  0  0  0  0  0  0  0  0  0
   -3.9493   -2.3152   -0.4591 H   0  0  0  0  0  0  0  0  0  0  0  0
  1 10  3  0  0  0  0
  2  3  1  0  0  0  0
  2  4  1  0  0  0  0
  2 10  1  0  0  0  0
  2 15  1  0  0  0  0
  3  5  1  0  0  0  0
  3 16  1  0  0  0  0
  3 17  1  0  0  0  0
  4  6  1  0  0  0  0
  4 18  1  0  0  0  0
  4 19  1  0  0  0  0
  5  7  1  0  0  0  0
  5  8  2  0  0  0  0
  6  8  1  0  0  0  0
  6 20  1  0  0  0  0
  6 21  1  0  0  0  0
  7  9  1  0  0  0  0
  7 22  1  0  0  0  0
  7 23  1  0  0  0  0
  8 24  1  0  0  0  0
  9 11  1  0  0  0  0
  9 25  1  0  0  0  0
  9 26  1  0  0  0  0
 11 12  2  0  0  0  0
 11 27  1  0  0  0  0
 12 13  1  0  0  0  0
 12 14  1  0  0  0  0
 13 28  1  0  0  0  0
 13 29  1  0  0  0  0
 13 30  1  0  0  0  0
 14 31  1  0  0  0  0
 14 32  1  0  0  0  0
 14 33  1  0  0  0  0
M  END
> <PUBCHEM_COMPOUND_CID>
107099

> <PUBCHEM_CONFORMER_RMSD>
0.6

> <PUBCHEM_CONFORMER_DIVERSEORDER>
1
73
49
88
61
32
19
45
6
76
43
78
5
74
64
58
75
23
18
82
84
55
59
2
69
62
51
72
8
40
60
38
47
3
30
53
17
87
71
42
77
24
25
11
85
56
7
12
26
67
35
91
16
4
31
21
65
37
41
39
13
80
50
46
9
15
27
90
14
33
28
79
22
34
36
29
10
70
52
57
44
20
66
81
54
89
48
68
86
63
83

> <PUBCHEM_MMFF94_PARTIAL_CHARGES>
15
1 -0.56
10 0.36
11 -0.29
12 -0.28
13 0.14
14 0.14
2 0.2
24 0.15
27 0.15
3 0.14
5 -0.28
6 0.14
7 0.14
8 -0.29
9 0.14

> <PUBCHEM_EFFECTIVE_ROTOR_COUNT>
3.8

> <PUBCHEM_PHARMACOPHORE_FEATURES>
3
1 1 acceptor
3 12 13 14 hydrophobe
6 2 3 4 5 6 8 rings

> <PUBCHEM_HEAVY_ATOM_COUNT>
14

> <PUBCHEM_ATOM_DEF_STEREO_COUNT>
0

> <PUBCHEM_ATOM_UDEF_STEREO_COUNT>
1

> <PUBCHEM_BOND_DEF_STEREO_COUNT>
0

> <PUBCHEM_BOND_UDEF_STEREO_COUNT>
0

> <PUBCHEM_ISOTOPIC_ATOM_COUNT>
0

> <PUBCHEM_COMPONENT_COUNT>
1

> <PUBCHEM_CACTVS_TAUTO_COUNT>
1

> <PUBCHEM_CONFORMER_ID>
0001A25B00000001

> <PUBCHEM_MMFF94_ENERGY>
8.7723

> <PUBCHEM_FEATURE_SELFOVERLAP>
15.223

> <PUBCHEM_SHAPE_FINGERPRINT>
12616999 72 17386019385261956486
12932764 1 18411144614649095493
13167823 11 18272370906069931935
14251717 144 18408040697539833882
14252887 29 17917721179872864092
15375358 24 17822294638253959640
15375462 189 18411702071355078410
15757776 16 18411141337931693060
200 152 17346601889570116381
20279233 1 17967821573558518009
20645477 70 18412830170374919055
21501502 16 18264777562435524968
21501925 9 17988923349226653481
22485316 2 18410573998516459549
2255824 54 18338804515005810268
23402655 69 18343871021637058925
23557571 272 15913062971429838041
23559900 14 17489877037392029557
300161 21 18131629002425043457
3060560 45 14851608786437814850
31174 14 18341888593619290756
33824 294 18409449215127001602
4990 188 16081093679781016185
5104073 3 18202006547275482459
522135 26 18260831488238512241
5374978 207 17418094317345841177
573450 72 17846500310178759435
581208 293 18335701676012285552
59682541 52 17972004035088585391
76465 3 18337383851219207819
81539 233 18337953523303018500
94968 8 18409455760757484822
9999458 23 18336548334816379500

> <PUBCHEM_SHAPE_MULTIPOLES>
283.13
9.08
1.78
1.05
10.67
0.54
0
1.52
0.14
-1.69
0.43
-0.38
0.28
-0.69

> <PUBCHEM_SHAPE_SELFOVERLAP>
556.029

> <PUBCHEM_SHAPE_VOLUME>
166.6

> <PUBCHEM_COORDINATE_TYPE>
2
5
10

$$$$
