107113
  -OEChem-11232109003D

 38 38  0     1  0  0  0  0  0999 V2000
   -0.5119    0.6281    0.0310 O   0  0  0  0  0  0  0  0  0  0  0  0
   -1.1839   -1.6265   -0.2866 O   0  0  0  0  0  0  0  0  0  0  0  0
    1.1963   -1.1265   -0.0012 C   0  0  0  0  0  0  0  0  0  0  0  0
    0.8462    0.3505   -0.3399 C   0  0  2  0  0  0  0  0  0  0  0  0
    1.7175    1.3984    0.3461 C   0  0  0  0  0  0  0  0  0  0  0  0
    0.1317   -2.0237   -0.6725 C   0  0  0  0  0  0  0  0  0  0  0  0
   -1.4205   -0.2590   -0.6230 C   0  0  1  0  0  0  0  0  0  0  0  0
    2.5824   -1.5091   -0.5422 C   0  0  0  0  0  0  0  0  0  0  0  0
    1.1658   -1.3797    1.5205 C   0  0  0  0  0  0  0  0  0  0  0  0
   -2.8248    0.0955   -0.1643 C   0  0  0  0  0  0  0  0  0  0  0  0
    3.1878    1.1955   -0.0145 C   0  0  0  0  0  0  0  0  0  0  0  0
    1.2626    2.8070   -0.0312 C   0  0  0  0  0  0  0  0  0  0  0  0
   -2.9627   -0.0754    1.3497 C   0  0  0  0  0  0  0  0  0  0  0  0
   -3.1864    1.5250   -0.5719 C   0  0  0  0  0  0  0  0  0  0  0  0
    0.9214    0.4952   -1.4279 H   0  0  0  0  0  0  0  0  0  0  0  0
    1.6056    1.3323    1.4352 H   0  0  0  0  0  0  0  0  0  0  0  0
    0.2075   -1.9814   -1.7666 H   0  0  0  0  0  0  0  0  0  0  0  0
    0.2579   -3.0724   -0.3812 H   0  0  0  0  0  0  0  0  0  0  0  0
   -1.3463   -0.1316   -1.7115 H   0  0  0  0  0  0  0  0  0  0  0  0
    3.4064   -1.3309    0.1479 H   0  0  0  0  0  0  0  0  0  0  0  0
    2.7856   -1.0717   -1.5242 H   0  0  0  0  0  0  0  0  0  0  0  0
    2.6183   -2.5963   -0.7004 H   0  0  0  0  0  0  0  0  0  0  0  0
    1.3077   -2.4446    1.7393 H   0  0  0  0  0  0  0  0  0  0  0  0
    0.2125   -1.0769    1.9664 H   0  0  0  0  0  0  0  0  0  0  0  0
    1.9631   -0.8397    2.0412 H   0  0  0  0  0  0  0  0  0  0  0  0
   -3.5350   -0.5935   -0.6394 H   0  0  0  0  0  0  0  0  0  0  0  0
    3.3482    0.9480   -1.0664 H   0  0  0  0  0  0  0  0  0  0  0  0
    3.7341    2.1345    0.1479 H   0  0  0  0  0  0  0  0  0  0  0  0
    3.6832    0.4966    0.6593 H   0  0  0  0  0  0  0  0  0  0  0  0
    1.3192    2.9660   -1.1136 H   0  0  0  0  0  0  0  0  0  0  0  0
    1.8931    3.5619    0.4516 H   0  0  0  0  0  0  0  0  0  0  0  0
    0.2329    2.9997    0.2872 H   0  0  0  0  0  0  0  0  0  0  0  0
   -2.2928    0.5935    1.9004 H   0  0  0  0  0  0  0  0  0  0  0  0
   -3.9868    0.1518    1.6661 H   0  0  0  0  0  0  0  0  0  0  0  0
   -2.7481   -1.1031    1.6602 H   0  0  0  0  0  0  0  0  0  0  0  0
   -2.5468    2.2652   -0.0796 H   0  0  0  0  0  0  0  0  0  0  0  0
   -4.2238    1.7500   -0.3014 H   0  0  0  0  0  0  0  0  0  0  0  0
   -3.0894    1.6571   -1.6547 H   0  0  0  0  0  0  0  0  0  0  0  0
  1  4  1  0  0  0  0
  1  7  1  0  0  0  0
  2  6  1  0  0  0  0
  2  7  1  0  0  0  0
  3  4  1  0  0  0  0
  3  6  1  0  0  0  0
  3  8  1  0  0  0  0
  3  9  1  0  0  0  0
  4  5  1  0  0  0  0
  4 15  1  0  0  0  0
  5 11  1  0  0  0  0
  5 12  1  0  0  0  0
  5 16  1  0  0  0  0
  6 17  1  0  0  0  0
  6 18  1  0  0  0  0
  7 10  1  0  0  0  0
  7 19  1  0  0  0  0
  8 20  1  0  0  0  0
  8 21  1  0  0  0  0
  8 22  1  0  0  0  0
  9 23  1  0  0  0  0
  9 24  1  0  0  0  0
  9 25  1  0  0  0  0
 10 13  1  0  0  0  0
 10 14  1  0  0  0  0
 10 26  1  0  0  0  0
 11 27  1  0  0  0  0
 11 28  1  0  0  0  0
 11 29  1  0  0  0  0
 12 30  1  0  0  0  0
 12 31  1  0  0  0  0
 12 32  1  0  0  0  0
 13 33  1  0  0  0  0
 13 34  1  0  0  0  0
 13 35  1  0  0  0  0
 14 36  1  0  0  0  0
 14 37  1  0  0  0  0
 14 38  1  0  0  0  0
M  END
> <PUBCHEM_COMPOUND_CID>
107113

> <PUBCHEM_CONFORMER_RMSD>
0.6

> <PUBCHEM_CONFORMER_DIVERSEORDER>
4
12
9
3
2
11
10
8
6
5
1
7

> <PUBCHEM_MMFF94_PARTIAL_CHARGES>
5
1 -0.56
2 -0.56
4 0.28
6 0.28
7 0.56

> <PUBCHEM_EFFECTIVE_ROTOR_COUNT>
3.2

> <PUBCHEM_PHARMACOPHORE_FEATURES>
6
1 1 acceptor
1 2 acceptor
3 10 13 14 hydrophobe
3 3 8 9 hydrophobe
3 5 11 12 hydrophobe
6 1 2 3 4 6 7 rings

> <PUBCHEM_HEAVY_ATOM_COUNT>
14

> <PUBCHEM_ATOM_DEF_STEREO_COUNT>
0

> <PUBCHEM_ATOM_UDEF_STEREO_COUNT>
2

> <PUBCHEM_BOND_DEF_STEREO_COUNT>
0

> <PUBCHEM_BOND_UDEF_STEREO_COUNT>
0

> <PUBCHEM_ISOTOPIC_ATOM_COUNT>
0

> <PUBCHEM_COMPONENT_COUNT>
1

> <PUBCHEM_CACTVS_TAUTO_COUNT>
1

> <PUBCHEM_CONFORMER_ID>
0001A26900000004

> <PUBCHEM_MMFF94_ENERGY>
45.1027

> <PUBCHEM_FEATURE_SELFOVERLAP>
30.483

> <PUBCHEM_SHAPE_FINGERPRINT>
10980938 120 18410855460265409280
12491281 212 18199478820991897706
12654215 9 18264200327262420452
12932764 1 18040999493036651711
13380535 21 18339935925176351998
13380535 76 18339917237720899606
13618510 140 18412259536714721853
14648413 74 18411984658612423615
15219456 202 18334299742973622073
15279308 100 18411138000304260997
15490181 7 18265607878160361949
15775835 57 18338519749852029101
16945 1 18267302212888892438
17990270 104 18338515227467705239
18186145 218 18131081445265087572
20233049 118 18117560613270664740
20510252 161 17406833359345157352
20653085 51 18053677046640699288
21130352 189 18267582407764882172
21501502 16 18269552895937656422
21524375 3 18194963182471079992
23419403 2 15958738990254149679
23526114 1 18411979139558187076
23557571 272 15122353681118833039
241688 4 17261597270620151147
25 1 18337960085875721436
2748010 2 18267015064281827124
305870 269 18335129925554667888
528862 383 18408879637791096707
528886 8 18272367590133626750
63268167 104 18341897385084685688
7364860 26 18343300362069303924
81228 2 16969701676873359408

> <PUBCHEM_SHAPE_MULTIPOLES>
276.37
4.7
2.5
1.04
2.3
0.82
-0.37
1.4
-0.14
-1.33
0.18
0.24
-0.32
0.24

> <PUBCHEM_SHAPE_SELFOVERLAP>
541.451

> <PUBCHEM_SHAPE_VOLUME>
166.8

> <PUBCHEM_COORDINATE_TYPE>
2
5
10

$$$$
