107272
  -OEChem-11232109203D

 40 40  0     1  0  0  0  0  0999 V2000
    3.6982   -1.3138   -0.0083 O   0  0  0  0  0  0  0  0  0  0  0  0
   -0.4182   -0.0829    0.3329 C   0  0  2  0  0  0  0  0  0  0  0  0
   -1.5589   -1.0986   -0.0289 C   0  0  0  0  0  0  0  0  0  0  0  0
   -0.7656    1.4214    0.1284 C   0  0  2  0  0  0  0  0  0  0  0  0
   -2.9001   -0.6219    0.5839 C   0  0  0  0  0  0  0  0  0  0  0  0
   -2.1344    1.7647    0.7325 C   0  0  0  0  0  0  0  0  0  0  0  0
   -3.2400    0.8294    0.2636 C   0  0  0  0  0  0  0  0  0  0  0  0
    0.9485   -0.4303   -0.2755 C   0  0  0  0  0  0  0  0  0  0  0  0
   -1.2406   -2.4826    0.5907 C   0  0  0  0  0  0  0  0  0  0  0  0
   -1.7347   -1.3262   -1.5434 C   0  0  0  0  0  0  0  0  0  0  0  0
   -0.6522    1.9523   -1.3045 C   0  0  0  0  0  0  0  0  0  0  0  0
    2.0470    0.4275    0.3409 C   0  0  0  0  0  0  0  0  0  0  0  0
    3.4231    0.0671   -0.2282 C   0  0  1  0  0  0  0  0  0  0  0  0
    4.5280    0.8936    0.4160 C   0  0  0  0  0  0  0  0  0  0  0  0
   -0.2946   -0.1841    1.4238 H   0  0  0  0  0  0  0  0  0  0  0  0
   -0.0539    2.0130    0.7189 H   0  0  0  0  0  0  0  0  0  0  0  0
   -2.8600   -0.7310    1.6764 H   0  0  0  0  0  0  0  0  0  0  0  0
   -3.7226   -1.2646    0.2448 H   0  0  0  0  0  0  0  0  0  0  0  0
   -2.4068    2.8016    0.5018 H   0  0  0  0  0  0  0  0  0  0  0  0
   -2.0633    1.7034    1.8265 H   0  0  0  0  0  0  0  0  0  0  0  0
   -4.1757    1.0982    0.7681 H   0  0  0  0  0  0  0  0  0  0  0  0
   -3.4201    0.9556   -0.8091 H   0  0  0  0  0  0  0  0  0  0  0  0
    1.1805   -1.4819   -0.0822 H   0  0  0  0  0  0  0  0  0  0  0  0
    0.9437   -0.3125   -1.3640 H   0  0  0  0  0  0  0  0  0  0  0  0
   -1.0280   -2.4005    1.6625 H   0  0  0  0  0  0  0  0  0  0  0  0
   -2.0903   -3.1667    0.4778 H   0  0  0  0  0  0  0  0  0  0  0  0
   -0.3816   -2.9623    0.1115 H   0  0  0  0  0  0  0  0  0  0  0  0
   -2.4997   -2.0892   -1.7331 H   0  0  0  0  0  0  0  0  0  0  0  0
   -2.0558   -0.4301   -2.0738 H   0  0  0  0  0  0  0  0  0  0  0  0
   -0.8107   -1.6819   -2.0103 H   0  0  0  0  0  0  0  0  0  0  0  0
    0.3409    1.7889   -1.7306 H   0  0  0  0  0  0  0  0  0  0  0  0
   -1.3905    1.5186   -1.9789 H   0  0  0  0  0  0  0  0  0  0  0  0
   -0.8180    3.0361   -1.3131 H   0  0  0  0  0  0  0  0  0  0  0  0
    1.8854    1.4930    0.1557 H   0  0  0  0  0  0  0  0  0  0  0  0
    2.0523    0.2723    1.4273 H   0  0  0  0  0  0  0  0  0  0  0  0
    3.4259    0.2374   -1.3111 H   0  0  0  0  0  0  0  0  0  0  0  0
    4.5873    0.6968    1.4920 H   0  0  0  0  0  0  0  0  0  0  0  0
    5.5028    0.6269   -0.0064 H   0  0  0  0  0  0  0  0  0  0  0  0
    4.3648    1.9646    0.2627 H   0  0  0  0  0  0  0  0  0  0  0  0
    4.5640   -1.5081   -0.4061 H   0  0  0  0  0  0  0  0  0  0  0  0
  1 13  1  0  0  0  0
  1 40  1  0  0  0  0
  2  3  1  0  0  0  0
  2  4  1  0  0  0  0
  2  8  1  0  0  0  0
  2 15  1  0  0  0  0
  3  5  1  0  0  0  0
  3  9  1  0  0  0  0
  3 10  1  0  0  0  0
  4  6  1  0  0  0  0
  4 11  1  0  0  0  0
  4 16  1  0  0  0  0
  5  7  1  0  0  0  0
  5 17  1  0  0  0  0
  5 18  1  0  0  0  0
  6  7  1  0  0  0  0
  6 19  1  0  0  0  0
  6 20  1  0  0  0  0
  7 21  1  0  0  0  0
  7 22  1  0  0  0  0
  8 12  1  0  0  0  0
  8 23  1  0  0  0  0
  8 24  1  0  0  0  0
  9 25  1  0  0  0  0
  9 26  1  0  0  0  0
  9 27  1  0  0  0  0
 10 28  1  0  0  0  0
 10 29  1  0  0  0  0
 10 30  1  0  0  0  0
 11 31  1  0  0  0  0
 11 32  1  0  0  0  0
 11 33  1  0  0  0  0
 12 13  1  0  0  0  0
 12 34  1  0  0  0  0
 12 35  1  0  0  0  0
 13 14  1  0  0  0  0
 13 36  1  0  0  0  0
 14 37  1  0  0  0  0
 14 38  1  0  0  0  0
 14 39  1  0  0  0  0
M  END
> <PUBCHEM_COMPOUND_CID>
107272

> <PUBCHEM_CONFORMER_RMSD>
0.6

> <PUBCHEM_CONFORMER_DIVERSEORDER>
6
37
34
17
19
45
52
13
29
30
21
11
22
10
39
32
20
41
18
53
54
42
8
7
14
1
35
15
36
16
46
12
24
4
33
3
43
47
50
31
2
40
9
23
48
25
5
38
28
26
44
49
27
51

> <PUBCHEM_MMFF94_PARTIAL_CHARGES>
3
1 -0.68
13 0.28
40 0.4

> <PUBCHEM_EFFECTIVE_ROTOR_COUNT>
4.2

> <PUBCHEM_PHARMACOPHORE_FEATURES>
4
1 1 acceptor
1 1 donor
3 3 9 10 hydrophobe
6 2 3 4 5 6 7 rings

> <PUBCHEM_HEAVY_ATOM_COUNT>
14

> <PUBCHEM_ATOM_DEF_STEREO_COUNT>
0

> <PUBCHEM_ATOM_UDEF_STEREO_COUNT>
3

> <PUBCHEM_BOND_DEF_STEREO_COUNT>
0

> <PUBCHEM_BOND_UDEF_STEREO_COUNT>
0

> <PUBCHEM_ISOTOPIC_ATOM_COUNT>
0

> <PUBCHEM_COMPONENT_COUNT>
1

> <PUBCHEM_CACTVS_TAUTO_COUNT>
1

> <PUBCHEM_CONFORMER_ID>
0001A30800000006

> <PUBCHEM_MMFF94_ENERGY>
35.7992

> <PUBCHEM_FEATURE_SELFOVERLAP>
20.297

> <PUBCHEM_SHAPE_FINGERPRINT>
10608611 8 18343582924005355280
10989021 7 18042408091775310388
11132069 177 18409729564817272248
12173636 292 18341894026557806412
12251169 10 18411142458733794368
12932764 1 17775564277904046570
13024252 1 14129055911551676549
13214271 11 18335985345537806463
13380535 76 18270684164432208726
14144814 61 18335138670366577986
14577589 140 18060143166817327199
14614273 12 18261948553160341316
14993402 34 18333446547836316325
15219456 202 18059866012878260326
15669948 3 18272365395315758702
15775835 57 18336831879260055208
16945 1 18341348742126133185
20510252 161 18271812284942651881
20525323 117 18412821408683605694
20528008 55 18341891883310746176
20645477 56 18410855447655080512
20645477 70 16988574459600160158
20871998 184 18201727279373923599
21501502 16 18341890771309796862
21524375 3 18054790581242037089
2306618 200 17095507505244477916
23402539 116 18340480153694442751
23419403 2 16327861592724573729
23557571 272 18271818929948154956
23559900 14 18343019970157535938
2748010 2 18120955922810825487
43471831 8 18261112907381265603
58051976 100 18341052930749393126
6333449 129 18272369763197219961
69090 78 18202280269239987695
75552 356 18409452526277722411
81228 2 18337378448171221313
9709674 26 18343026592649576934

> <PUBCHEM_SHAPE_MULTIPOLES>
282.24
6.35
2.18
1.04
8.48
0.28
0.36
-0.35
-1
-1.24
0.06
-0.49
-0.03
-0.07

> <PUBCHEM_SHAPE_SELFOVERLAP>
544.45

> <PUBCHEM_SHAPE_VOLUME>
172.5

> <PUBCHEM_COORDINATE_TYPE>
2
5
10

$$$$
