107333
  -OEChem-11232109253D

 39 40  0     1  0  0  0  0  0999 V2000
    4.4899    0.7587    0.0381 O   0  0  0  0  0  0  0  0  0  0  0  0
   -2.4500   -0.3869   -0.4515 C   0  0  2  0  0  0  0  0  0  0  0  0
   -1.3040   -1.3777   -0.0394 C   0  0  0  0  0  0  0  0  0  0  0  0
   -2.0065    1.0585   -0.0288 C   0  0  0  0  0  0  0  0  0  0  0  0
   -0.1128   -0.4446   -0.0396 C   0  0  0  0  0  0  0  0  0  0  0  0
   -0.5014    0.9029   -0.0339 C   0  0  0  0  0  0  0  0  0  0  0  0
   -3.8483   -0.7921    0.0132 C   0  0  0  0  0  0  0  0  0  0  0  0
   -1.4697   -2.0206    1.3456 C   0  0  0  0  0  0  0  0  0  0  0  0
   -1.1643   -2.4917   -1.0911 C   0  0  0  0  0  0  0  0  0  0  0  0
   -2.4859    1.5031    1.3609 C   0  0  0  0  0  0  0  0  0  0  0  0
   -2.4838    2.0843   -1.0711 C   0  0  0  0  0  0  0  0  0  0  0  0
    1.2340   -0.7917   -0.0204 C   0  0  0  0  0  0  0  0  0  0  0  0
    0.4539    1.9137   -0.0090 C   0  0  0  0  0  0  0  0  0  0  0  0
    2.1935    0.2216   -0.0031 C   0  0  0  0  0  0  0  0  0  0  0  0
    1.8057    1.5666    0.0026 C   0  0  0  0  0  0  0  0  0  0  0  0
    3.6068   -0.1216    0.0167 C   0  0  0  0  0  0  0  0  0  0  0  0
    4.0429   -1.5826    0.0108 C   0  0  0  0  0  0  0  0  0  0  0  0
   -2.4898   -0.3937   -1.5532 H   0  0  0  0  0  0  0  0  0  0  0  0
   -4.1090   -1.7844   -0.3693 H   0  0  0  0  0  0  0  0  0  0  0  0
   -3.9337   -0.8216    1.1034 H   0  0  0  0  0  0  0  0  0  0  0  0
   -4.5981   -0.0879   -0.3618 H   0  0  0  0  0  0  0  0  0  0  0  0
   -2.3444   -2.6791    1.3790 H   0  0  0  0  0  0  0  0  0  0  0  0
   -0.5964   -2.6328    1.6022 H   0  0  0  0  0  0  0  0  0  0  0  0
   -1.5760   -1.2784    2.1412 H   0  0  0  0  0  0  0  0  0  0  0  0
   -0.9519   -2.0832   -2.0861 H   0  0  0  0  0  0  0  0  0  0  0  0
   -0.3481   -3.1803   -0.8446 H   0  0  0  0  0  0  0  0  0  0  0  0
   -2.0837   -3.0834   -1.1605 H   0  0  0  0  0  0  0  0  0  0  0  0
   -2.0720    2.4842    1.6244 H   0  0  0  0  0  0  0  0  0  0  0  0
   -3.5768    1.5945    1.3975 H   0  0  0  0  0  0  0  0  0  0  0  0
   -2.1789    0.8119    2.1502 H   0  0  0  0  0  0  0  0  0  0  0  0
   -2.0911    1.8582   -2.0695 H   0  0  0  0  0  0  0  0  0  0  0  0
   -3.5773    2.0985   -1.1359 H   0  0  0  0  0  0  0  0  0  0  0  0
   -2.1557    3.0990   -0.8183 H   0  0  0  0  0  0  0  0  0  0  0  0
    1.5019   -1.8424   -0.0128 H   0  0  0  0  0  0  0  0  0  0  0  0
    0.1641    2.9593    0.0068 H   0  0  0  0  0  0  0  0  0  0  0  0
    2.5441    2.3644    0.0211 H   0  0  0  0  0  0  0  0  0  0  0  0
    3.6920   -2.0789   -0.8978 H   0  0  0  0  0  0  0  0  0  0  0  0
    3.6762   -2.0903    0.9067 H   0  0  0  0  0  0  0  0  0  0  0  0
    5.1365   -1.6294    0.0197 H   0  0  0  0  0  0  0  0  0  0  0  0
  1 16  2  0  0  0  0
  2  3  1  0  0  0  0
  2  4  1  0  0  0  0
  2  7  1  0  0  0  0
  2 18  1  0  0  0  0
  3  5  1  0  0  0  0
  3  8  1  0  0  0  0
  3  9  1  0  0  0  0
  4  6  1  0  0  0  0
  4 10  1  0  0  0  0
  4 11  1  0  0  0  0
  5  6  2  0  0  0  0
  5 12  1  0  0  0  0
  6 13  1  0  0  0  0
  7 19  1  0  0  0  0
  7 20  1  0  0  0  0
  7 21  1  0  0  0  0
  8 22  1  0  0  0  0
  8 23  1  0  0  0  0
  8 24  1  0  0  0  0
  9 25  1  0  0  0  0
  9 26  1  0  0  0  0
  9 27  1  0  0  0  0
 10 28  1  0  0  0  0
 10 29  1  0  0  0  0
 10 30  1  0  0  0  0
 11 31  1  0  0  0  0
 11 32  1  0  0  0  0
 11 33  1  0  0  0  0
 12 14  2  0  0  0  0
 12 34  1  0  0  0  0
 13 15  2  0  0  0  0
 13 35  1  0  0  0  0
 14 15  1  0  0  0  0
 14 16  1  0  0  0  0
 15 36  1  0  0  0  0
 16 17  1  0  0  0  0
 17 37  1  0  0  0  0
 17 38  1  0  0  0  0
 17 39  1  0  0  0  0
M  END
> <PUBCHEM_COMPOUND_CID>
107333

> <PUBCHEM_CONFORMER_RMSD>
0.6

> <PUBCHEM_CONFORMER_DIVERSEORDER>
3
2
5
6
4
1

> <PUBCHEM_MMFF94_PARTIAL_CHARGES>
14
1 -0.57
12 -0.15
13 -0.15
14 0.09
15 -0.15
16 0.42
17 0.06
3 0.14
34 0.15
35 0.15
36 0.15
4 0.14
5 -0.14
6 -0.14

> <PUBCHEM_EFFECTIVE_ROTOR_COUNT>
1.6

> <PUBCHEM_PHARMACOPHORE_FEATURES>
5
1 1 acceptor
3 3 8 9 hydrophobe
3 4 10 11 hydrophobe
5 2 3 4 5 6 rings
6 5 6 12 13 14 15 rings

> <PUBCHEM_HEAVY_ATOM_COUNT>
17

> <PUBCHEM_ATOM_DEF_STEREO_COUNT>
0

> <PUBCHEM_ATOM_UDEF_STEREO_COUNT>
1

> <PUBCHEM_BOND_DEF_STEREO_COUNT>
0

> <PUBCHEM_BOND_UDEF_STEREO_COUNT>
0

> <PUBCHEM_ISOTOPIC_ATOM_COUNT>
0

> <PUBCHEM_COMPONENT_COUNT>
1

> <PUBCHEM_CACTVS_TAUTO_COUNT>
2

> <PUBCHEM_CONFORMER_ID>
0001A34500000003

> <PUBCHEM_MMFF94_ENERGY>
64.6287

> <PUBCHEM_FEATURE_SELFOVERLAP>
25.448

> <PUBCHEM_SHAPE_FINGERPRINT>
10062212 137 18268136587395435823
10608611 8 18410849984493674540
10967382 1 18411417353830864710
11132069 177 18339071593505254776
11315181 36 18201717337189076768
11578080 2 16986014980861051883
11680986 33 18120936367476710177
12403814 3 17894633647160363013
12592029 89 18043526101953291769
13024252 1 16370723747077609995
13140716 1 18124318473828480539
13221675 6 18334574663508472786
13581323 91 18334576853962730308
14115302 16 17604154834148986479
14144814 61 18409446973201500354
15196674 1 18410854330889386092
15309172 13 18339648810865279777
15442244 35 18412263900728113448
15534591 1 16986878930818175137
15775835 57 18261673662605969445
16752209 62 18337371791298998935
16945 1 18266158682304816975
17804303 29 18342742909853525380
18186145 218 18270403767945729684
200 152 18060409232015674469
20510252 161 18202003209310556449
20645476 183 17605013445704146374
20871998 184 18342181084901986975
21267235 1 18410582781782926822
21501502 16 18339367486286465812
21524375 3 18337390422925047301
2334 1 18266179628913372284
23402539 116 18131061658698784871
23419403 2 16253272969868584061
23463225 33 18410013221811137278
23559900 14 18341607063561937586
25 1 18048868603172763165
2748010 2 18268718199171480703
3286 77 17346030199278951219
335352 9 18194399979409890300
34934 24 18410002269713156146
350125 39 18411985767199568537
5104073 3 18411135806098180264
559249 180 18189607242932760682
69090 78 18342734135103490463
7364860 26 18124875909318544440
74978 22 18412823612070621096
81228 2 18192140706231797017
8809292 202 18188773971267584594
90525 40 18342740710645744758
9709674 26 18411140217030131630

> <PUBCHEM_SHAPE_MULTIPOLES>
343.98
6.36
2.49
0.98
5.97
0.34
-0.14
0.34
-0.09
-1
0.18
-0.71
0.1
0.06

> <PUBCHEM_SHAPE_SELFOVERLAP>
729.132

> <PUBCHEM_SHAPE_VOLUME>
198

> <PUBCHEM_COORDINATE_TYPE>
2
5
10

$$$$
