108237
  -OEChem-11232108413D

 31 30  0     1  0  0  0  0  0999 V2000
    1.5900   -0.8326    0.0405 O   0  0  0  0  0  0  0  0  0  0  0  0
    3.1315    0.9308    0.3495 O   0  0  0  0  0  0  0  0  0  0  0  0
   -1.9796    0.2996   -0.2631 C   0  0  0  0  0  0  0  0  0  0  0  0
   -0.7921   -0.5890    0.1038 C   0  0  0  0  0  0  0  0  0  0  0  0
   -3.3301   -0.2811    0.1657 C   0  0  0  0  0  0  0  0  0  0  0  0
   -4.5204    0.5965   -0.2234 C   0  0  0  0  0  0  0  0  0  0  0  0
    0.5290    0.0442   -0.3124 C   0  0  0  0  0  0  0  0  0  0  0  0
   -5.8293    0.0133    0.2873 C   0  0  0  0  0  0  0  0  0  0  0  0
    2.8739   -0.3057   -0.3202 C   0  0  1  0  0  0  0  0  0  0  0  0
    3.9090   -1.3367    0.1113 C   0  0  0  0  0  0  0  0  0  0  0  0
    4.4183    1.4606    0.0610 C   0  0  0  0  0  0  0  0  0  0  0  0
   -1.8525    1.2850    0.2022 H   0  0  0  0  0  0  0  0  0  0  0  0
   -1.9879    0.4609   -1.3482 H   0  0  0  0  0  0  0  0  0  0  0  0
   -0.8937   -1.5718   -0.3730 H   0  0  0  0  0  0  0  0  0  0  0  0
   -0.7804   -0.7787    1.1842 H   0  0  0  0  0  0  0  0  0  0  0  0
   -3.4531   -1.2749   -0.2825 H   0  0  0  0  0  0  0  0  0  0  0  0
   -3.3250   -0.4237    1.2536 H   0  0  0  0  0  0  0  0  0  0  0  0
    0.5413    0.2140   -1.3953 H   0  0  0  0  0  0  0  0  0  0  0  0
    0.6499    1.0064    0.1978 H   0  0  0  0  0  0  0  0  0  0  0  0
   -4.3902    1.6031    0.1903 H   0  0  0  0  0  0  0  0  0  0  0  0
   -4.5668    0.6966   -1.3139 H   0  0  0  0  0  0  0  0  0  0  0  0
    2.9061   -0.1625   -1.4073 H   0  0  0  0  0  0  0  0  0  0  0  0
   -6.6680    0.6537   -0.0032 H   0  0  0  0  0  0  0  0  0  0  0  0
   -6.0030   -0.9841   -0.1291 H   0  0  0  0  0  0  0  0  0  0  0  0
   -5.8245   -0.0656    1.3791 H   0  0  0  0  0  0  0  0  0  0  0  0
    3.9770   -1.3857    1.2041 H   0  0  0  0  0  0  0  0  0  0  0  0
    4.9066   -1.1101   -0.2761 H   0  0  0  0  0  0  0  0  0  0  0  0
    3.6298   -2.3349   -0.2430 H   0  0  0  0  0  0  0  0  0  0  0  0
    5.1929    0.9349    0.6260 H   0  0  0  0  0  0  0  0  0  0  0  0
    4.4301    2.5064    0.3819 H   0  0  0  0  0  0  0  0  0  0  0  0
    4.6313    1.4293   -1.0121 H   0  0  0  0  0  0  0  0  0  0  0  0
  1  7  1  0  0  0  0
  1  9  1  0  0  0  0
  2  9  1  0  0  0  0
  2 11  1  0  0  0  0
  3  4  1  0  0  0  0
  3  5  1  0  0  0  0
  3 12  1  0  0  0  0
  3 13  1  0  0  0  0
  4  7  1  0  0  0  0
  4 14  1  0  0  0  0
  4 15  1  0  0  0  0
  5  6  1  0  0  0  0
  5 16  1  0  0  0  0
  5 17  1  0  0  0  0
  6  8  1  0  0  0  0
  6 20  1  0  0  0  0
  6 21  1  0  0  0  0
  7 18  1  0  0  0  0
  7 19  1  0  0  0  0
  8 23  1  0  0  0  0
  8 24  1  0  0  0  0
  8 25  1  0  0  0  0
  9 10  1  0  0  0  0
  9 22  1  0  0  0  0
 10 26  1  0  0  0  0
 10 27  1  0  0  0  0
 10 28  1  0  0  0  0
 11 29  1  0  0  0  0
 11 30  1  0  0  0  0
 11 31  1  0  0  0  0
M  END
> <PUBCHEM_COMPOUND_CID>
108237

> <PUBCHEM_CONFORMER_RMSD>
0.6

> <PUBCHEM_CONFORMER_DIVERSEORDER>
1
301
249
178
304
316
41
104
82
148
207
314
307
300
269
327
187
270
122
203
303
200
264
222
320
281
169
34
204
96
66
214
242
322
211
67
309
206
254
5
280
218
313
326
278
77
258
247
267
311
106
317
287
91
208
11
217
177
62
80
276
184
209
262
12
94
240
250
210
205
79
154
198
53
159
225
283
261
321
190
47
286
219
30
288
130
132
49
233
296
71
195
312
325
213
90
235
188
56
229
232
182
323
231
144
3
95
236
160
124
180
116
46
183
298
308
72
237
114
255
256
191
230
212
6
37
282
85
223
295
239
15
201
74
163
220
299
290
216
109
105
228
179
215
165
16
297
143
224
113
291
196
112
306
273
263
274
48
241
266
226
81
127
284
318
136
14
153
61
69
272
244
98
265
40
167
227
156
97
166
39
328
285
279
197
23
252
100
293
110
155
13
65
42
2
251
45
43
294
238
245
310
121
253
115
73
76
173
151
260
123
134
315
194
60
24
108
271
149
103
275
161
330
36
135
221
139
164
292
192
319
58
277
138
38
120
147
157
324
142
329
234
107
189
158
10
64
28
68
101
257
137
33
9
70
248
102
25
126
243
86
199
4
83
131
87
176
118
181
63
88
78
7
84
162
331
50
8
89
35
146
168
259
44
75
31
20
27
54
140
141
29
152
57
99
125
305
21
92
171
246
174
51
185
19
186
193
268
93
175
52
302
111
145
172
133
17
59
119
202
32
289
117
55
22
128
170
129
26
18
150

> <PUBCHEM_MMFF94_PARTIAL_CHARGES>
5
1 -0.56
11 0.28
2 -0.56
7 0.28
9 0.56

> <PUBCHEM_EFFECTIVE_ROTOR_COUNT>
7

> <PUBCHEM_PHARMACOPHORE_FEATURES>
4
1 1 acceptor
1 2 acceptor
1 8 hydrophobe
4 3 4 5 6 hydrophobe

> <PUBCHEM_HEAVY_ATOM_COUNT>
11

> <PUBCHEM_ATOM_DEF_STEREO_COUNT>
0

> <PUBCHEM_ATOM_UDEF_STEREO_COUNT>
1

> <PUBCHEM_BOND_DEF_STEREO_COUNT>
0

> <PUBCHEM_BOND_UDEF_STEREO_COUNT>
0

> <PUBCHEM_ISOTOPIC_ATOM_COUNT>
0

> <PUBCHEM_COMPONENT_COUNT>
1

> <PUBCHEM_CACTVS_TAUTO_COUNT>
1

> <PUBCHEM_CONFORMER_ID>
0001A6CD00000001

> <PUBCHEM_MMFF94_ENERGY>
11.9984

> <PUBCHEM_FEATURE_SELFOVERLAP>
20.336

> <PUBCHEM_SHAPE_FINGERPRINT>
10912923 1 17989205937037776275
11062470 55 18343021090621806159
11287383 113 18410294731189920803
13081056 2 18335420145100786421
14123238 8 18272369785130804013
17834072 33 18060133276024394815
17834076 25 18412546526202242956
20605781 2 18410855507721331976
20645477 70 18342740672075714462
20719005 15 18408323268128564359
212847 35 18060136535535398440
22485316 2 18408039624146045851
23048698 100 18343023276580863946
23402539 116 18341325627107940693
23402655 69 18131913775398333516
23532345 1 18336269032829019016
23557571 272 16951128357374779279
4047638 21 18411139143103223426
42788 4 18411982447373834839
449060 50 18334857246491761388
449060 62 18341895212269077164
522135 26 18342459227421802254
5374978 207 18408036303956880800

> <PUBCHEM_SHAPE_MULTIPOLES>
214.64
12.3
1.17
0.65
9.14
0.1
0.01
1.96
-0.96
-1.68
-0.06
0.05
0.01
0.2

> <PUBCHEM_SHAPE_SELFOVERLAP>
380.944

> <PUBCHEM_SHAPE_VOLUME>
140.2

> <PUBCHEM_COORDINATE_TYPE>
2
5
10

$$$$
