108244
  -OEChem-11232109163D

 34 33  0     1  0  0  0  0  0999 V2000
    1.1082   -1.1597    0.1199 O   0  0  0  0  0  0  0  0  0  0  0  0
    2.8055    0.4834    0.1418 O   0  0  0  0  0  0  0  0  0  0  0  0
   -2.3549    0.2326   -0.3108 C   0  0  0  0  0  0  0  0  0  0  0  0
   -1.2411   -0.6951    0.1725 C   0  0  0  0  0  0  0  0  0  0  0  0
   -3.7400   -0.1532    0.2159 C   0  0  0  0  0  0  0  0  0  0  0  0
    0.1197   -0.2531   -0.3493 C   0  0  0  0  0  0  0  0  0  0  0  0
   -4.8580    0.7606   -0.2877 C   0  0  0  0  0  0  0  0  0  0  0  0
    2.4239   -0.8108   -0.3307 C   0  0  1  0  0  0  0  0  0  0  0  0
   -6.2000    0.3808    0.3199 C   0  0  0  0  0  0  0  0  0  0  0  0
    3.3751   -1.8551    0.2397 C   0  0  0  0  0  0  0  0  0  0  0  0
    4.1263    0.8456   -0.2378 C   0  0  0  0  0  0  0  0  0  0  0  0
    4.4353    2.2240    0.3066 C   0  0  0  0  0  0  0  0  0  0  0  0
   -2.1302    1.2608   -0.0009 H   0  0  0  0  0  0  0  0  0  0  0  0
   -2.3758    0.2302   -1.4077 H   0  0  0  0  0  0  0  0  0  0  0  0
   -1.2193   -0.7216    1.2690 H   0  0  0  0  0  0  0  0  0  0  0  0
   -1.4403   -1.7247   -0.1494 H   0  0  0  0  0  0  0  0  0  0  0  0
   -3.7205   -0.1319    1.3127 H   0  0  0  0  0  0  0  0  0  0  0  0
   -3.9608   -1.1875   -0.0760 H   0  0  0  0  0  0  0  0  0  0  0  0
    0.1200   -0.2486   -1.4455 H   0  0  0  0  0  0  0  0  0  0  0  0
    0.3373    0.7595    0.0084 H   0  0  0  0  0  0  0  0  0  0  0  0
   -4.9224    0.7005   -1.3802 H   0  0  0  0  0  0  0  0  0  0  0  0
   -4.6298    1.8017   -0.0320 H   0  0  0  0  0  0  0  0  0  0  0  0
    2.4417   -0.8354   -1.4273 H   0  0  0  0  0  0  0  0  0  0  0  0
   -6.9863    1.0439   -0.0544 H   0  0  0  0  0  0  0  0  0  0  0  0
   -6.4708   -0.6477    0.0606 H   0  0  0  0  0  0  0  0  0  0  0  0
   -6.1752    0.4655    1.4110 H   0  0  0  0  0  0  0  0  0  0  0  0
    3.5260   -1.7043    1.3146 H   0  0  0  0  0  0  0  0  0  0  0  0
    4.3544   -1.8356   -0.2472 H   0  0  0  0  0  0  0  0  0  0  0  0
    2.9649   -2.8624    0.1063 H   0  0  0  0  0  0  0  0  0  0  0  0
    4.2118    0.8458   -1.3298 H   0  0  0  0  0  0  0  0  0  0  0  0
    4.8664    0.1600    0.1832 H   0  0  0  0  0  0  0  0  0  0  0  0
    5.4463    2.5368    0.0305 H   0  0  0  0  0  0  0  0  0  0  0  0
    3.7211    2.9592   -0.0790 H   0  0  0  0  0  0  0  0  0  0  0  0
    4.3469    2.2371    1.3980 H   0  0  0  0  0  0  0  0  0  0  0  0
  1  6  1  0  0  0  0
  1  8  1  0  0  0  0
  2  8  1  0  0  0  0
  2 11  1  0  0  0  0
  3  4  1  0  0  0  0
  3  5  1  0  0  0  0
  3 13  1  0  0  0  0
  3 14  1  0  0  0  0
  4  6  1  0  0  0  0
  4 15  1  0  0  0  0
  4 16  1  0  0  0  0
  5  7  1  0  0  0  0
  5 17  1  0  0  0  0
  5 18  1  0  0  0  0
  6 19  1  0  0  0  0
  6 20  1  0  0  0  0
  7  9  1  0  0  0  0
  7 21  1  0  0  0  0
  7 22  1  0  0  0  0
  8 10  1  0  0  0  0
  8 23  1  0  0  0  0
  9 24  1  0  0  0  0
  9 25  1  0  0  0  0
  9 26  1  0  0  0  0
 10 27  1  0  0  0  0
 10 28  1  0  0  0  0
 10 29  1  0  0  0  0
 11 12  1  0  0  0  0
 11 30  1  0  0  0  0
 11 31  1  0  0  0  0
 12 32  1  0  0  0  0
 12 33  1  0  0  0  0
 12 34  1  0  0  0  0
M  END
> <PUBCHEM_COMPOUND_CID>
108244

> <PUBCHEM_CONFORMER_RMSD>
0.8

> <PUBCHEM_CONFORMER_DIVERSEORDER>
1
118
130
193
159
50
86
143
117
148
98
75
151
141
152
69
44
100
33
55
187
135
58
105
176
119
103
78
189
154
150
3
115
10
184
102
134
146
145
160
67
140
166
147
168
70
34
186
178
93
81
92
180
38
183
182
25
132
165
155
40
17
124
95
113
85
153
144
179
8
175
114
45
131
116
57
84
110
36
72
192
111
73
158
64
171
120
161
87
66
101
156
188
164
104
27
14
22
74
174
43
196
107
181
167
26
6
52
109
149
139
79
157
198
46
195
129
172
82
63
49
185
136
89
9
37
41
13
61
62
194
28
177
68
138
60
32
65
59
23
35
170
112
162
48
97
127
83
12
108
88
42
128
191
53
80
137
5
173
96
51
121
142
20
163
16
77
94
76
29
122
15
7
2
24
90
126
39
71
11
31
4
54
197
199
123
106
125
190
21
169
30
19
91
56
133
47
99
18

> <PUBCHEM_MMFF94_PARTIAL_CHARGES>
5
1 -0.56
11 0.28
2 -0.56
6 0.28
8 0.56

> <PUBCHEM_EFFECTIVE_ROTOR_COUNT>
8

> <PUBCHEM_PHARMACOPHORE_FEATURES>
4
1 1 acceptor
1 2 acceptor
1 9 hydrophobe
4 3 4 5 7 hydrophobe

> <PUBCHEM_HEAVY_ATOM_COUNT>
12

> <PUBCHEM_ATOM_DEF_STEREO_COUNT>
0

> <PUBCHEM_ATOM_UDEF_STEREO_COUNT>
1

> <PUBCHEM_BOND_DEF_STEREO_COUNT>
0

> <PUBCHEM_BOND_UDEF_STEREO_COUNT>
0

> <PUBCHEM_ISOTOPIC_ATOM_COUNT>
0

> <PUBCHEM_COMPONENT_COUNT>
1

> <PUBCHEM_CACTVS_TAUTO_COUNT>
1

> <PUBCHEM_CONFORMER_ID>
0001A6D400000001

> <PUBCHEM_MMFF94_ENERGY>
10.349

> <PUBCHEM_FEATURE_SELFOVERLAP>
20.336

> <PUBCHEM_SHAPE_FINGERPRINT>
100836 57 18335424612215135268
10912923 1 18060417998165348627
11287383 113 18408888438748954387
12616999 72 16558754503023892158
13081056 2 18334575703122550173
13955234 65 18336827490015079722
14123238 8 18343864412172578535
14251718 22 18272650186518781959
14251732 16 18338801221383066115
16079462 125 17821997697891313677
17834072 33 18273492390739818887
17834076 25 18408324388803740397
20605781 2 18410574019585321897
20645477 56 18186519921223144127
20645477 70 18340770334174574294
212847 35 18131067117116849857
21652331 79 18411418401824503629
22896161 15 18339924926730483903
22959321 54 18341897389569700056
23048698 100 18342178838581330675
23402655 69 18131631205252461183
23532345 1 18409732880631920378
270888 7 18196089078743150336
2916195 48 18259701207913699897
3545911 37 18334580152476488694
4047638 21 18408888429768681470
42788 4 18410294679935078247
449060 50 18334857238038879405
449060 62 18413670231823908940
5104073 3 18333734611187481739
522135 26 18341614785137896694
5374978 207 18187361008668301024
59682541 52 17203068347836448308

> <PUBCHEM_SHAPE_MULTIPOLES>
235.22
13.16
1.67
0.67
13.33
0.3
0.01
5.45
-0.99
-3.15
-0.18
0.05
0.01
0.19

> <PUBCHEM_SHAPE_SELFOVERLAP>
418.809

> <PUBCHEM_SHAPE_VOLUME>
153.2

> <PUBCHEM_COORDINATE_TYPE>
2
5
10

$$$$
