1083514
  -OEChem-11232109173D

 56 57  0     0  0  0  0  0  0999 V2000
    3.0332   -1.1097   -0.0342 S   0  0  0  0  0  0  0  0  0  0  0  0
    1.4003    3.0533   -0.2048 O   0  0  0  0  0  0  0  0  0  0  0  0
    5.5028   -2.4870   -0.2065 O   0  0  0  0  0  0  0  0  0  0  0  0
    3.2502    3.6820    0.9948 O   0  0  0  0  0  0  0  0  0  0  0  0
    6.9001   -0.6784   -0.0265 O   0  0  0  0  0  0  0  0  0  0  0  0
   -6.2010    1.4451   -0.4611 O   0  0  0  0  0  0  0  0  0  0  0  0
   -7.8972   -0.6676    0.1565 O   0  0  0  0  0  0  0  0  0  0  0  0
    0.4233   -1.9850   -0.0981 O   0  0  0  0  0  0  0  0  0  0  0  0
    0.8090    0.3234    0.1413 N   0  0  0  0  0  0  0  0  0  0  0  0
    4.4370    1.0311    0.1814 C   0  0  0  0  0  0  0  0  0  0  0  0
    3.0747    1.4443    0.2393 C   0  0  0  0  0  0  0  0  0  0  0  0
    2.2063    0.3802    0.1338 C   0  0  0  0  0  0  0  0  0  0  0  0
    4.5579   -0.3332    0.0340 C   0  0  0  0  0  0  0  0  0  0  0  0
    5.5908    1.9614    0.2696 C   0  0  0  0  0  0  0  0  0  0  0  0
    2.6184    2.8038    0.3894 C   0  0  0  0  0  0  0  0  0  0  0  0
    5.7384   -1.1311   -0.0633 C   0  0  0  0  0  0  0  0  0  0  0  0
    0.0413   -0.8278    0.0275 C   0  0  0  0  0  0  0  0  0  0  0  0
   -3.7894   -1.2584    0.0277 C   0  0  0  0  0  0  0  0  0  0  0  0
   -1.4168   -0.4969    0.0763 C   0  0  0  0  0  0  0  0  0  0  0  0
   -2.3512   -1.4701   -0.0171 C   0  0  0  0  0  0  0  0  0  0  0  0
   -4.3173    0.0044   -0.2409 C   0  0  0  0  0  0  0  0  0  0  0  0
    0.8873    4.3857   -0.0934 C   0  0  0  0  0  0  0  0  0  0  0  0
   -5.6968    0.2073   -0.1985 C   0  0  0  0  0  0  0  0  0  0  0  0
   -4.6408   -2.3185    0.3391 C   0  0  0  0  0  0  0  0  0  0  0  0
   -6.5482   -0.8528    0.1131 C   0  0  0  0  0  0  0  0  0  0  0  0
    6.6440   -3.3461   -0.3104 C   0  0  0  0  0  0  0  0  0  0  0  0
   -6.0203   -2.1155    0.3819 C   0  0  0  0  0  0  0  0  0  0  0  0
   -0.4478    4.4609   -0.8032 C   0  0  0  0  0  0  0  0  0  0  0  0
    6.1722   -4.7768   -0.4592 C   0  0  0  0  0  0  0  0  0  0  0  0
   -5.2635    2.4744   -0.7710 C   0  0  0  0  0  0  0  0  0  0  0  0
   -8.6970   -1.8024    0.4827 C   0  0  0  0  0  0  0  0  0  0  0  0
    5.3316    2.9806   -0.0294 H   0  0  0  0  0  0  0  0  0  0  0  0
    6.4020    1.6663   -0.4028 H   0  0  0  0  0  0  0  0  0  0  0  0
    5.9796    1.9912    1.2925 H   0  0  0  0  0  0  0  0  0  0  0  0
    0.3459    1.2233    0.2420 H   0  0  0  0  0  0  0  0  0  0  0  0
   -1.6771    0.5463    0.2168 H   0  0  0  0  0  0  0  0  0  0  0  0
   -2.0357   -2.5053   -0.1272 H   0  0  0  0  0  0  0  0  0  0  0  0
   -3.6378    0.8032   -0.5088 H   0  0  0  0  0  0  0  0  0  0  0  0
    0.7595    4.6385    0.9649 H   0  0  0  0  0  0  0  0  0  0  0  0
    1.5925    5.0866   -0.5533 H   0  0  0  0  0  0  0  0  0  0  0  0
   -4.2466   -3.3093    0.5526 H   0  0  0  0  0  0  0  0  0  0  0  0
    7.2373   -3.0574   -1.1848 H   0  0  0  0  0  0  0  0  0  0  0  0
    7.2554   -3.2483    0.5934 H   0  0  0  0  0  0  0  0  0  0  0  0
   -6.6202   -2.9840    0.6308 H   0  0  0  0  0  0  0  0  0  0  0  0
   -0.3382    4.1929   -1.8592 H   0  0  0  0  0  0  0  0  0  0  0  0
   -1.1564    3.7487   -0.3672 H   0  0  0  0  0  0  0  0  0  0  0  0
   -0.8709    5.4670   -0.7358 H   0  0  0  0  0  0  0  0  0  0  0  0
    7.0204   -5.4620   -0.5415 H   0  0  0  0  0  0  0  0  0  0  0  0
    5.5429   -4.8842   -1.3489 H   0  0  0  0  0  0  0  0  0  0  0  0
    5.5607   -5.0721    0.3998 H   0  0  0  0  0  0  0  0  0  0  0  0
   -4.5919    2.6782    0.0701 H   0  0  0  0  0  0  0  0  0  0  0  0
   -4.7220    2.2623   -1.6993 H   0  0  0  0  0  0  0  0  0  0  0  0
   -5.8386    3.3903   -0.9440 H   0  0  0  0  0  0  0  0  0  0  0  0
   -9.7416   -1.4742    0.4722 H   0  0  0  0  0  0  0  0  0  0  0  0
   -8.4883   -2.1659    1.4946 H   0  0  0  0  0  0  0  0  0  0  0  0
   -8.6045   -2.5916   -0.2713 H   0  0  0  0  0  0  0  0  0  0  0  0
  1 12  1  0  0  0  0
  1 13  1  0  0  0  0
  2 15  1  0  0  0  0
  2 22  1  0  0  0  0
  3 16  1  0  0  0  0
  3 26  1  0  0  0  0
  4 15  2  0  0  0  0
  5 16  2  0  0  0  0
  6 23  1  0  0  0  0
  6 30  1  0  0  0  0
  7 25  1  0  0  0  0
  7 31  1  0  0  0  0
  8 17  2  0  0  0  0
  9 12  1  0  0  0  0
  9 17  1  0  0  0  0
  9 35  1  0  0  0  0
 10 11  1  0  0  0  0
 10 13  2  0  0  0  0
 10 14  1  0  0  0  0
 11 12  2  0  0  0  0
 11 15  1  0  0  0  0
 13 16  1  0  0  0  0
 14 32  1  0  0  0  0
 14 33  1  0  0  0  0
 14 34  1  0  0  0  0
 17 19  1  0  0  0  0
 18 20  1  0  0  0  0
 18 21  2  0  0  0  0
 18 24  1  0  0  0  0
 19 20  2  0  0  0  0
 19 36  1  0  0  0  0
 20 37  1  0  0  0  0
 21 23  1  0  0  0  0
 21 38  1  0  0  0  0
 22 28  1  0  0  0  0
 22 39  1  0  0  0  0
 22 40  1  0  0  0  0
 23 25  2  0  0  0  0
 24 27  2  0  0  0  0
 24 41  1  0  0  0  0
 25 27  1  0  0  0  0
 26 29  1  0  0  0  0
 26 42  1  0  0  0  0
 26 43  1  0  0  0  0
 27 44  1  0  0  0  0
 28 45  1  0  0  0  0
 28 46  1  0  0  0  0
 28 47  1  0  0  0  0
 29 48  1  0  0  0  0
 29 49  1  0  0  0  0
 29 50  1  0  0  0  0
 30 51  1  0  0  0  0
 30 52  1  0  0  0  0
 30 53  1  0  0  0  0
 31 54  1  0  0  0  0
 31 55  1  0  0  0  0
 31 56  1  0  0  0  0
M  END
> <PUBCHEM_COMPOUND_CID>
1083514

> <PUBCHEM_CONFORMER_RMSD>
1.2

> <PUBCHEM_CONFORMER_DIVERSEORDER>
1
6
8
12
11
9
5
10
7
4
3
2

> <PUBCHEM_MMFF94_PARTIAL_CHARGES>
35
1 -0.08
10 -0.18
11 -0.09
12 0.1
13 -0.05
14 0.18
15 0.81
16 0.81
17 0.62
18 0.03
19 -0.14
2 -0.43
20 -0.18
21 -0.15
22 0.28
23 0.08
24 -0.15
25 0.08
26 0.28
27 -0.15
3 -0.43
30 0.28
31 0.28
35 0.37
36 0.15
37 0.15
38 0.15
4 -0.57
41 0.15
44 0.15
5 -0.57
6 -0.36
7 -0.36
8 -0.57
9 -0.49

> <PUBCHEM_EFFECTIVE_ROTOR_COUNT>
12

> <PUBCHEM_PHARMACOPHORE_FEATURES>
8
1 4 acceptor
1 5 acceptor
1 6 acceptor
1 7 acceptor
1 8 acceptor
1 9 donor
5 1 10 11 12 13 rings
6 18 21 23 24 25 27 rings

> <PUBCHEM_HEAVY_ATOM_COUNT>
31

> <PUBCHEM_ATOM_DEF_STEREO_COUNT>
0

> <PUBCHEM_ATOM_UDEF_STEREO_COUNT>
0

> <PUBCHEM_BOND_DEF_STEREO_COUNT>
1

> <PUBCHEM_BOND_UDEF_STEREO_COUNT>
0

> <PUBCHEM_ISOTOPIC_ATOM_COUNT>
0

> <PUBCHEM_COMPONENT_COUNT>
1

> <PUBCHEM_CACTVS_TAUTO_COUNT>
5

> <PUBCHEM_CONFORMER_ID>
0010887A00000001

> <PUBCHEM_MMFF94_ENERGY>
95.6223

> <PUBCHEM_FEATURE_SELFOVERLAP>
40.603

> <PUBCHEM_SHAPE_FINGERPRINT>
10411042 1 18340207363727283722
10864689 126 18118392957075796685
12166972 35 18187086182712863149
12645989 146 18411981373489969863
14933364 13 18408604790418526051
15183329 4 18409730655549061627
15419008 47 17967525783872678261
15483637 11 18265330604237582757
17844677 252 18411142476303683425
18335252 114 18410565202608066911
19301679 30 18266454318454114074
19611394 137 18042136521868735203
20721686 56 18263081167161442169
21133410 127 17535738930799315909
21279426 13 18335697204671651892
21315763 129 18410855495152648975
21315763 28 18413108377525335819
21315764 268 18337387249313922605
23559900 14 18411976983785434339
3103668 31 18043809784280312725
4073 2 18042126629483217178
4144715 1 18261397784129914411
4625314 4 18410853313953412511
484989 97 18337389336557375556
70251023 43 18337674110411633882

> <PUBCHEM_SHAPE_MULTIPOLES>
595.75
22.51
5.48
0.71
23.47
3.15
0.01
-18.26
-0.31
-7.67
0.67
0.07
0.18
2.46

> <PUBCHEM_SHAPE_SELFOVERLAP>
1235.891

> <PUBCHEM_SHAPE_VOLUME>
341.8

> <PUBCHEM_COORDINATE_TYPE>
2
5
10

$$$$
