108313
  -OEChem-11232109043D

 29 29  0     1  0  0  0  0  0999 V2000
    3.3799   -2.3237   -0.6614 O   0  0  0  0  0  0  0  0  0  0  0  0
    2.4276    0.8772    0.3771 C   0  0  1  0  0  0  0  0  0  0  0  0
    1.0390    0.3166   -0.0087 C   0  0  0  0  0  0  0  0  0  0  0  0
   -0.1584    1.0101    0.6571 C   0  0  0  0  0  0  0  0  0  0  0  0
    3.5439    0.0512   -0.2840 C   0  0  0  0  0  0  0  0  0  0  0  0
    2.5788    2.3455   -0.0308 C   0  0  0  0  0  0  0  0  0  0  0  0
   -1.4927    0.4060    0.2980 C   0  0  0  0  0  0  0  0  0  0  0  0
    3.4788   -1.3956    0.1351 C   0  0  0  0  0  0  0  0  0  0  0  0
   -2.1828    0.8861   -0.8048 C   0  0  0  0  0  0  0  0  0  0  0  0
   -2.0078   -0.6191    1.0767 C   0  0  0  0  0  0  0  0  0  0  0  0
   -3.4173    0.3277   -1.1368 C   0  0  0  0  0  0  0  0  0  0  0  0
   -3.2421   -1.1776    0.7448 C   0  0  0  0  0  0  0  0  0  0  0  0
   -3.9468   -0.7042   -0.3621 C   0  0  0  0  0  0  0  0  0  0  0  0
    2.5365    0.8060    1.4671 H   0  0  0  0  0  0  0  0  0  0  0  0
    0.9206    0.3664   -1.0996 H   0  0  0  0  0  0  0  0  0  0  0  0
    0.9907   -0.7486    0.2503 H   0  0  0  0  0  0  0  0  0  0  0  0
   -0.0329    0.9876    1.7476 H   0  0  0  0  0  0  0  0  0  0  0  0
   -0.1768    2.0731    0.3881 H   0  0  0  0  0  0  0  0  0  0  0  0
    3.4740    0.1037   -1.3766 H   0  0  0  0  0  0  0  0  0  0  0  0
    4.5288    0.4314    0.0090 H   0  0  0  0  0  0  0  0  0  0  0  0
    1.8853    2.9858    0.5224 H   0  0  0  0  0  0  0  0  0  0  0  0
    2.3920    2.4822   -1.1012 H   0  0  0  0  0  0  0  0  0  0  0  0
    3.5907    2.7054    0.1846 H   0  0  0  0  0  0  0  0  0  0  0  0
   -1.7777    1.6877   -1.4158 H   0  0  0  0  0  0  0  0  0  0  0  0
   -1.4656   -0.9960    1.9392 H   0  0  0  0  0  0  0  0  0  0  0  0
    3.5534   -1.5853    1.2197 H   0  0  0  0  0  0  0  0  0  0  0  0
   -3.9657    0.6959   -1.9989 H   0  0  0  0  0  0  0  0  0  0  0  0
   -3.6543   -1.9815    1.3477 H   0  0  0  0  0  0  0  0  0  0  0  0
   -4.9078   -1.1393   -0.6206 H   0  0  0  0  0  0  0  0  0  0  0  0
  1  8  2  0  0  0  0
  2  3  1  0  0  0  0
  2  5  1  0  0  0  0
  2  6  1  0  0  0  0
  2 14  1  0  0  0  0
  3  4  1  0  0  0  0
  3 15  1  0  0  0  0
  3 16  1  0  0  0  0
  4  7  1  0  0  0  0
  4 17  1  0  0  0  0
  4 18  1  0  0  0  0
  5  8  1  0  0  0  0
  5 19  1  0  0  0  0
  5 20  1  0  0  0  0
  6 21  1  0  0  0  0
  6 22  1  0  0  0  0
  6 23  1  0  0  0  0
  7  9  2  0  0  0  0
  7 10  1  0  0  0  0
  8 26  1  0  0  0  0
  9 11  1  0  0  0  0
  9 24  1  0  0  0  0
 10 12  2  0  0  0  0
 10 25  1  0  0  0  0
 11 13  2  0  0  0  0
 11 27  1  0  0  0  0
 12 13  1  0  0  0  0
 12 28  1  0  0  0  0
 13 29  1  0  0  0  0
M  END
> <PUBCHEM_COMPOUND_CID>
108313

> <PUBCHEM_CONFORMER_RMSD>
0.6

> <PUBCHEM_CONFORMER_DIVERSEORDER>
1
57
43
61
17
54
58
25
3
44
53
38
27
21
2
62
14
59
31
18
41
26
46
47
12
51
37
60
56
8
22
45
50
19
48
39
49
15
10
13
24
40
52
32
29
23
55
28
30
5
7
35
36
34
16
20
33
6
9
42
11
4

> <PUBCHEM_MMFF94_PARTIAL_CHARGES>
16
1 -0.57
10 -0.15
11 -0.15
12 -0.15
13 -0.15
24 0.15
25 0.15
26 0.06
27 0.15
28 0.15
29 0.15
4 0.14
5 0.06
7 -0.14
8 0.45
9 -0.15

> <PUBCHEM_EFFECTIVE_ROTOR_COUNT>
5

> <PUBCHEM_PHARMACOPHORE_FEATURES>
4
1 1 acceptor
1 6 hydrophobe
4 2 3 4 5 hydrophobe
6 7 9 10 11 12 13 rings

> <PUBCHEM_HEAVY_ATOM_COUNT>
13

> <PUBCHEM_ATOM_DEF_STEREO_COUNT>
0

> <PUBCHEM_ATOM_UDEF_STEREO_COUNT>
1

> <PUBCHEM_BOND_DEF_STEREO_COUNT>
0

> <PUBCHEM_BOND_UDEF_STEREO_COUNT>
0

> <PUBCHEM_ISOTOPIC_ATOM_COUNT>
0

> <PUBCHEM_COMPONENT_COUNT>
1

> <PUBCHEM_CACTVS_TAUTO_COUNT>
2

> <PUBCHEM_CONFORMER_ID>
0001A71900000001

> <PUBCHEM_MMFF94_ENERGY>
24.8491

> <PUBCHEM_FEATURE_SELFOVERLAP>
20.489

> <PUBCHEM_SHAPE_FINGERPRINT>
10465860 71 16950570973303016062
11137873 295 18337958895953301203
12932764 1 17203328948222053857
13296908 3 18333730247173530673
13705890 14 18334857212664707888
14123260 362 13767930100337195023
15239191 94 18060140937750380006
15477762 27 18411981360641711372
17834074 16 18335421287367018626
18186145 218 17894623751755990961
19107657 162 18187366583657255011
1986462 14 17603301553286070051
200 152 18131066043454237801
20201158 50 18409167714206563306
20279233 1 18261108612413449664
20281475 54 18272090547584167291
20645477 56 17894624881612101261
20645477 70 18411133653866117342
20671657 53 18337674109788809930
22169311 21 18335978765531819113
22485316 2 18202279242790283153
2255824 54 18201722920319916424
22943178 12 18187922932282891537
23403322 49 18337953385357649770
23557571 272 17676766573763288661
23559900 14 18334568066734345568
57812782 119 18333446555972505208
581208 293 18342172323516680792
81539 233 18191307276877255324
90316 7 15482681156206697939
93112 12 18186517704708893364
9709674 26 18260548977958723971
9882013 296 12535329217069129722

> <PUBCHEM_SHAPE_MULTIPOLES>
261.66
8.1
1.9
0.99
0.54
0.21
0.01
2.61
1.37
2.21
0.15
-0.61
0.05
0.9

> <PUBCHEM_SHAPE_SELFOVERLAP>
521.849

> <PUBCHEM_SHAPE_VOLUME>
154.6

> <PUBCHEM_COORDINATE_TYPE>
2
5
10

$$$$
