108446
  -OEChem-11232109253D

 42 43  0     1  0  0  0  0  0999 V2000
   -1.1974    0.9522   -1.7385 O   0  0  0  0  0  0  0  0  0  0  0  0
    0.8672    1.0604   -0.3532 C   0  0  0  0  0  0  0  0  0  0  0  0
    1.3095   -0.2528    0.4529 C   0  0  1  0  0  0  0  0  0  0  0  0
   -1.3306   -0.1034    0.4557 C   0  0  2  0  0  0  0  0  0  0  0  0
   -0.7478    1.1135   -0.3750 C   0  0  2  0  0  0  0  0  0  0  0  0
    0.7497   -0.1842    1.9046 C   0  0  0  0  0  0  0  0  0  0  0  0
   -0.7760   -0.0520    1.9019 C   0  0  0  0  0  0  0  0  0  0  0  0
    0.5970   -1.4630   -0.1956 C   0  0  0  0  0  0  0  0  0  0  0  0
   -0.7557   -1.3921   -0.1840 C   0  0  0  0  0  0  0  0  0  0  0  0
    1.4359    1.0310   -1.8005 C   0  0  0  0  0  0  0  0  0  0  0  0
    1.4877    2.3299    0.2931 C   0  0  0  0  0  0  0  0  0  0  0  0
    2.8390   -0.4276    0.5659 C   0  0  0  0  0  0  0  0  0  0  0  0
   -2.8708   -0.0976    0.5462 C   0  0  0  0  0  0  0  0  0  0  0  0
   -1.3291    2.4733    0.0622 C   0  0  0  0  0  0  0  0  0  0  0  0
    1.4181   -2.5754   -0.7798 C   0  0  0  0  0  0  0  0  0  0  0  0
   -1.6967   -2.4120   -0.7559 C   0  0  0  0  0  0  0  0  0  0  0  0
    1.1954    0.6390    2.4739 H   0  0  0  0  0  0  0  0  0  0  0  0
    1.0223   -1.0961    2.4548 H   0  0  0  0  0  0  0  0  0  0  0  0
   -1.2029   -0.8651    2.5050 H   0  0  0  0  0  0  0  0  0  0  0  0
   -1.0670    0.8760    2.4069 H   0  0  0  0  0  0  0  0  0  0  0  0
    1.1071    0.1513   -2.3625 H   0  0  0  0  0  0  0  0  0  0  0  0
    1.1325    1.9222   -2.3622 H   0  0  0  0  0  0  0  0  0  0  0  0
    2.5310    1.0276   -1.8030 H   0  0  0  0  0  0  0  0  0  0  0  0
    1.2450    3.2296   -0.2832 H   0  0  0  0  0  0  0  0  0  0  0  0
    1.1460    2.4913    1.3186 H   0  0  0  0  0  0  0  0  0  0  0  0
    2.5810    2.2813    0.3145 H   0  0  0  0  0  0  0  0  0  0  0  0
    3.3031    0.3986    1.1136 H   0  0  0  0  0  0  0  0  0  0  0  0
    3.0935   -1.3385    1.1208 H   0  0  0  0  0  0  0  0  0  0  0  0
    3.3263   -0.4966   -0.4107 H   0  0  0  0  0  0  0  0  0  0  0  0
   -3.2347    0.7677    1.1108 H   0  0  0  0  0  0  0  0  0  0  0  0
   -3.3353   -0.0645   -0.4448 H   0  0  0  0  0  0  0  0  0  0  0  0
   -3.2483   -0.9845    1.0676 H   0  0  0  0  0  0  0  0  0  0  0  0
   -0.9428    3.2881   -0.5605 H   0  0  0  0  0  0  0  0  0  0  0  0
   -2.4140    2.5042   -0.0888 H   0  0  0  0  0  0  0  0  0  0  0  0
   -1.1267    2.7079    1.1099 H   0  0  0  0  0  0  0  0  0  0  0  0
   -1.0355    1.7817   -2.2184 H   0  0  0  0  0  0  0  0  0  0  0  0
    2.0013   -3.0705    0.0028 H   0  0  0  0  0  0  0  0  0  0  0  0
    2.1043   -2.1850   -1.5381 H   0  0  0  0  0  0  0  0  0  0  0  0
    0.8263   -3.3507   -1.2685 H   0  0  0  0  0  0  0  0  0  0  0  0
   -1.1961   -3.2528   -1.2380 H   0  0  0  0  0  0  0  0  0  0  0  0
   -2.3382   -1.9544   -1.5156 H   0  0  0  0  0  0  0  0  0  0  0  0
   -2.3273   -2.8335    0.0330 H   0  0  0  0  0  0  0  0  0  0  0  0
  1  5  1  0  0  0  0
  1 36  1  0  0  0  0
  2  3  1  0  0  0  0
  2  5  1  0  0  0  0
  2 10  1  0  0  0  0
  2 11  1  0  0  0  0
  3  6  1  0  0  0  0
  3  8  1  0  0  0  0
  3 12  1  0  0  0  0
  4  5  1  0  0  0  0
  4  7  1  0  0  0  0
  4  9  1  0  0  0  0
  4 13  1  0  0  0  0
  5 14  1  0  0  0  0
  6  7  1  0  0  0  0
  6 17  1  0  0  0  0
  6 18  1  0  0  0  0
  7 19  1  0  0  0  0
  7 20  1  0  0  0  0
  8  9  2  0  0  0  0
  8 15  1  0  0  0  0
  9 16  1  0  0  0  0
 10 21  1  0  0  0  0
 10 22  1  0  0  0  0
 10 23  1  0  0  0  0
 11 24  1  0  0  0  0
 11 25  1  0  0  0  0
 11 26  1  0  0  0  0
 12 27  1  0  0  0  0
 12 28  1  0  0  0  0
 12 29  1  0  0  0  0
 13 30  1  0  0  0  0
 13 31  1  0  0  0  0
 13 32  1  0  0  0  0
 14 33  1  0  0  0  0
 14 34  1  0  0  0  0
 14 35  1  0  0  0  0
 15 37  1  0  0  0  0
 15 38  1  0  0  0  0
 15 39  1  0  0  0  0
 16 40  1  0  0  0  0
 16 41  1  0  0  0  0
 16 42  1  0  0  0  0
M  END
> <PUBCHEM_COMPOUND_CID>
108446

> <PUBCHEM_CONFORMER_RMSD>
0.4

> <PUBCHEM_CONFORMER_DIVERSEORDER>
4
3
2
1

> <PUBCHEM_MMFF94_PARTIAL_CHARGES>
9
1 -0.68
15 0.14
16 0.14
3 0.14
36 0.4
4 0.14
5 0.28
8 -0.28
9 -0.28

> <PUBCHEM_EFFECTIVE_ROTOR_COUNT>
0.8

> <PUBCHEM_PHARMACOPHORE_FEATURES>
4
1 1 acceptor
1 1 donor
3 2 10 11 hydrophobe
8 2 3 4 5 6 7 8 9 rings

> <PUBCHEM_HEAVY_ATOM_COUNT>
16

> <PUBCHEM_ATOM_DEF_STEREO_COUNT>
0

> <PUBCHEM_ATOM_UDEF_STEREO_COUNT>
3

> <PUBCHEM_BOND_DEF_STEREO_COUNT>
0

> <PUBCHEM_BOND_UDEF_STEREO_COUNT>
0

> <PUBCHEM_ISOTOPIC_ATOM_COUNT>
0

> <PUBCHEM_COMPONENT_COUNT>
1

> <PUBCHEM_CACTVS_TAUTO_COUNT>
1

> <PUBCHEM_CONFORMER_ID>
0001A79E00000004

> <PUBCHEM_MMFF94_ENERGY>
82.4759

> <PUBCHEM_FEATURE_SELFOVERLAP>
20.297

> <PUBCHEM_SHAPE_FINGERPRINT>
10702982 57 16907846154818604402
10863032 1 17913774082973098552
10948715 1 17912654793110881233
12423570 1 18408605846458293610
13024252 1 15647618826759231906
141345 1 10724579423121739707
144361 1 17971502661104963084
14817 1 9580979045756525305
15557651 10 17404364753803614040
15775835 57 18192441985255450856
16945 1 18341323427156458338
20511035 2 18041849543973079880
22112679 90 18195528314230983939
22344851 12 12603514468746042764
22344851 262 18411980252012836330
22344851 341 16321744137238778194
2334 1 18051410974302601207
23419403 2 17825633807938997596
241688 4 17834120740466750579
2748010 2 18409722967446532836
5084963 1 15583686979837493786
528886 8 18268147741520156827
54276843 12 18040713671051910184

> <PUBCHEM_SHAPE_MULTIPOLES>
323.4
2.85
2.67
1.58
0.24
0.31
0.17
0.21
0.14
-0.04
-0.77
-0.15
-0.15
-0.22

> <PUBCHEM_SHAPE_SELFOVERLAP>
675.126

> <PUBCHEM_SHAPE_VOLUME>
185.4

> <PUBCHEM_COORDINATE_TYPE>
2
5
10

$$$$
