108425
  -OEChem-11232108543D

 43 43  0     1  0  0  0  0  0999 V2000
   -2.8330   -1.3540    0.9564 O   0  0  0  0  0  0  0  0  0  0  0  0
    0.4152   -0.0990    0.0466 C   0  0  1  0  0  0  0  0  0  0  0  0
    1.6367   -1.0769   -0.0776 C   0  0  0  0  0  0  0  0  0  0  0  0
    0.7639    1.4188    0.0413 C   0  0  1  0  0  0  0  0  0  0  0  0
    2.7635   -0.6354    0.8902 C   0  0  0  0  0  0  0  0  0  0  0  0
   -0.7403   -0.4122   -0.9153 C   0  0  0  0  0  0  0  0  0  0  0  0
    1.9225    1.7278    0.9998 C   0  0  0  0  0  0  0  0  0  0  0  0
    3.1357    0.8380    0.7682 C   0  0  0  0  0  0  0  0  0  0  0  0
    1.2066   -2.5043    0.3440 C   0  0  0  0  0  0  0  0  0  0  0  0
    2.2001   -1.1932   -1.5077 C   0  0  0  0  0  0  0  0  0  0  0  0
   -2.0331    0.3514   -0.5812 C   0  0  2  0  0  0  0  0  0  0  0  0
    1.0079    2.0513   -1.3328 C   0  0  0  0  0  0  0  0  0  0  0  0
   -2.5616    0.0405    0.8385 C   0  0  1  0  0  0  0  0  0  0  0  0
   -3.0629    0.0271   -1.6732 C   0  0  0  0  0  0  0  0  0  0  0  0
   -3.8213    0.8202    1.2027 C   0  0  0  0  0  0  0  0  0  0  0  0
    0.0526   -0.2905    1.0647 H   0  0  0  0  0  0  0  0  0  0  0  0
   -0.0957    1.9574    0.4617 H   0  0  0  0  0  0  0  0  0  0  0  0
    3.6620   -1.2450    0.7305 H   0  0  0  0  0  0  0  0  0  0  0  0
    2.4487   -0.8244    1.9258 H   0  0  0  0  0  0  0  0  0  0  0  0
   -0.9603   -1.4847   -0.9103 H   0  0  0  0  0  0  0  0  0  0  0  0
   -0.4406   -0.1899   -1.9459 H   0  0  0  0  0  0  0  0  0  0  0  0
    1.5746    1.5860    2.0316 H   0  0  0  0  0  0  0  0  0  0  0  0
    2.2172    2.7810    0.9189 H   0  0  0  0  0  0  0  0  0  0  0  0
    3.5807    1.0436   -0.2110 H   0  0  0  0  0  0  0  0  0  0  0  0
    3.9037    1.0768    1.5134 H   0  0  0  0  0  0  0  0  0  0  0  0
    0.5119   -2.9559   -0.3709 H   0  0  0  0  0  0  0  0  0  0  0  0
    2.0746   -3.1717    0.4076 H   0  0  0  0  0  0  0  0  0  0  0  0
    0.7245   -2.5021    1.3280 H   0  0  0  0  0  0  0  0  0  0  0  0
    1.4357   -1.5192   -2.2202 H   0  0  0  0  0  0  0  0  0  0  0  0
    2.6257   -0.2597   -1.8747 H   0  0  0  0  0  0  0  0  0  0  0  0
    3.0060   -1.9365   -1.5460 H   0  0  0  0  0  0  0  0  0  0  0  0
   -1.8528    1.4298   -0.6495 H   0  0  0  0  0  0  0  0  0  0  0  0
    0.1557    1.9235   -2.0049 H   0  0  0  0  0  0  0  0  0  0  0  0
    1.1546    3.1325   -1.2232 H   0  0  0  0  0  0  0  0  0  0  0  0
    1.8979    1.6644   -1.8285 H   0  0  0  0  0  0  0  0  0  0  0  0
   -1.8179    0.3013    1.5969 H   0  0  0  0  0  0  0  0  0  0  0  0
   -3.9689    0.6297   -1.5586 H   0  0  0  0  0  0  0  0  0  0  0  0
   -3.3507   -1.0293   -1.6562 H   0  0  0  0  0  0  0  0  0  0  0  0
   -2.6580    0.2485   -2.6671 H   0  0  0  0  0  0  0  0  0  0  0  0
   -4.0856    0.6342    2.2499 H   0  0  0  0  0  0  0  0  0  0  0  0
   -3.6780    1.8964    1.0687 H   0  0  0  0  0  0  0  0  0  0  0  0
   -4.6838    0.4946    0.6125 H   0  0  0  0  0  0  0  0  0  0  0  0
   -1.9813   -1.8202    0.9980 H   0  0  0  0  0  0  0  0  0  0  0  0
  1 13  1  0  0  0  0
  1 43  1  0  0  0  0
  2  3  1  0  0  0  0
  2  4  1  0  0  0  0
  2  6  1  0  0  0  0
  2 16  1  0  0  0  0
  3  5  1  0  0  0  0
  3  9  1  0  0  0  0
  3 10  1  0  0  0  0
  4  7  1  0  0  0  0
  4 12  1  0  0  0  0
  4 17  1  0  0  0  0
  5  8  1  0  0  0  0
  5 18  1  0  0  0  0
  5 19  1  0  0  0  0
  6 11  1  0  0  0  0
  6 20  1  0  0  0  0
  6 21  1  0  0  0  0
  7  8  1  0  0  0  0
  7 22  1  0  0  0  0
  7 23  1  0  0  0  0
  8 24  1  0  0  0  0
  8 25  1  0  0  0  0
  9 26  1  0  0  0  0
  9 27  1  0  0  0  0
  9 28  1  0  0  0  0
 10 29  1  0  0  0  0
 10 30  1  0  0  0  0
 10 31  1  0  0  0  0
 11 13  1  0  0  0  0
 11 14  1  0  0  0  0
 11 32  1  0  0  0  0
 12 33  1  0  0  0  0
 12 34  1  0  0  0  0
 12 35  1  0  0  0  0
 13 15  1  0  0  0  0
 13 36  1  0  0  0  0
 14 37  1  0  0  0  0
 14 38  1  0  0  0  0
 14 39  1  0  0  0  0
 15 40  1  0  0  0  0
 15 41  1  0  0  0  0
 15 42  1  0  0  0  0
M  END
> <PUBCHEM_COMPOUND_CID>
108425

> <PUBCHEM_CONFORMER_RMSD>
0.6

> <PUBCHEM_CONFORMER_DIVERSEORDER>
2
26
22
20
18
9
5
19
21
13
28
16
32
8
23
25
29
3
15
12
31
27
14
17
30
11
1
4
24
6
10
7

> <PUBCHEM_MMFF94_PARTIAL_CHARGES>
3
1 -0.68
13 0.28
43 0.4

> <PUBCHEM_EFFECTIVE_ROTOR_COUNT>
4.2

> <PUBCHEM_PHARMACOPHORE_FEATURES>
5
1 1 acceptor
1 1 donor
1 14 hydrophobe
3 3 9 10 hydrophobe
6 2 3 4 5 7 8 rings

> <PUBCHEM_HEAVY_ATOM_COUNT>
15

> <PUBCHEM_ATOM_DEF_STEREO_COUNT>
0

> <PUBCHEM_ATOM_UDEF_STEREO_COUNT>
4

> <PUBCHEM_BOND_DEF_STEREO_COUNT>
0

> <PUBCHEM_BOND_UDEF_STEREO_COUNT>
0

> <PUBCHEM_ISOTOPIC_ATOM_COUNT>
0

> <PUBCHEM_COMPONENT_COUNT>
1

> <PUBCHEM_CACTVS_TAUTO_COUNT>
1

> <PUBCHEM_CONFORMER_ID>
0001A78900000002

> <PUBCHEM_MMFF94_ENERGY>
42.4716

> <PUBCHEM_FEATURE_SELFOVERLAP>
25.371

> <PUBCHEM_SHAPE_FINGERPRINT>
10219947 1 18335968844532080492
10980938 120 18130781244299486072
11067466 332 18040727934923227698
11086676 242 18198343948919459896
11471102 22 18334286578650842824
12326174 3 18343015567288848710
124424 183 17459445823894499656
12491281 212 17632009879159744066
12696612 119 18261957452332578404
12932764 1 18339079281275142735
13380536 127 15430040954742466503
13764800 53 14404914630334118427
14115302 16 15575263290776793925
14178342 30 18407760343807985715
14817 1 12866537016228298420
15309172 13 18264760133484267320
15375358 24 18042666378175805261
15490181 8 18053384585026849828
15501101 241 18340198614229814964
15775835 57 17489588974083251473
16945 1 18130780175026566260
19049666 15 17898560987015108525
201361 129 17846499248773503584
20279233 1 18040988532127066607
21061003 4 18335697191939698046
21524375 3 17913752076019687840
23419403 2 15874976876259353514
23526113 38 17533198787795783127
23557571 272 16515398551843267204
2748010 2 18334846238775424846
568465 68 18408038537281683818
77492 1 17632283593014486807
7832392 63 17561086869241736129
81228 2 17681261166543903620

> <PUBCHEM_SHAPE_MULTIPOLES>
302.82
5.56
2.07
1.51
4.06
0.2
-0.39
-0.24
1.44
-1.39
0.04
0.51
-0.12
0.15

> <PUBCHEM_SHAPE_SELFOVERLAP>
585.928

> <PUBCHEM_SHAPE_VOLUME>
184.9

> <PUBCHEM_COORDINATE_TYPE>
2
5
10

$$$$
