108515
  -OEChem-11232108543D

 42 41  0     1  0  0  0  0  0999 V2000
    0.0770    1.9931    0.0248 O   0  0  0  0  0  0  0  0  0  0  0  0
    1.1920    1.0530   -1.7727 O   0  0  0  0  0  0  0  0  0  0  0  0
    3.0994    0.2527   -0.1844 O   0  0  0  0  0  0  0  0  0  0  0  0
    1.9910    1.1906    1.6182 O   0  0  0  0  0  0  0  0  0  0  0  0
   -2.6360    0.9663    0.4744 C   0  0  1  0  0  0  0  0  0  0  0  0
   -3.6498   -0.1948    0.3480 C   0  0  0  0  0  0  0  0  0  0  0  0
   -2.0400    1.3499   -0.8931 C   0  0  0  0  0  0  0  0  0  0  0  0
   -3.0994   -1.4959   -0.2540 C   0  0  0  0  0  0  0  0  0  0  0  0
   -3.3317    2.1610    1.1388 C   0  0  0  0  0  0  0  0  0  0  0  0
   -0.9769    2.4407   -0.8191 C   0  0  0  0  0  0  0  0  0  0  0  0
   -1.9282   -2.0417    0.5140 C   0  0  0  0  0  0  0  0  0  0  0  0
   -0.8403   -2.6783    0.0398 C   0  0  0  0  0  0  0  0  0  0  0  0
   -0.6859   -2.9175   -1.4393 C   0  0  0  0  0  0  0  0  0  0  0  0
    0.2983   -3.1999    0.8692 C   0  0  0  0  0  0  0  0  0  0  0  0
    1.0757    1.3231   -0.5930 C   0  0  0  0  0  0  0  0  0  0  0  0
    2.1072    0.9206    0.4385 C   0  0  0  0  0  0  0  0  0  0  0  0
    4.1591   -0.1983    0.6647 C   0  0  0  0  0  0  0  0  0  0  0  0
    5.1884   -0.9246   -0.1748 C   0  0  0  0  0  0  0  0  0  0  0  0
   -1.8275    0.6459    1.1429 H   0  0  0  0  0  0  0  0  0  0  0  0
   -4.5014    0.1319   -0.2634 H   0  0  0  0  0  0  0  0  0  0  0  0
   -4.0581   -0.4178    1.3432 H   0  0  0  0  0  0  0  0  0  0  0  0
   -1.5801    0.4669   -1.3491 H   0  0  0  0  0  0  0  0  0  0  0  0
   -2.8406    1.6778   -1.5672 H   0  0  0  0  0  0  0  0  0  0  0  0
   -3.9003   -2.2450   -0.2260 H   0  0  0  0  0  0  0  0  0  0  0  0
   -2.8675   -1.3268   -1.3083 H   0  0  0  0  0  0  0  0  0  0  0  0
   -4.0945    2.5924    0.4819 H   0  0  0  0  0  0  0  0  0  0  0  0
   -3.8216    1.8565    2.0701 H   0  0  0  0  0  0  0  0  0  0  0  0
   -2.6172    2.9475    1.3989 H   0  0  0  0  0  0  0  0  0  0  0  0
   -0.6113    2.6912   -1.8225 H   0  0  0  0  0  0  0  0  0  0  0  0
   -1.3773    3.3685   -0.4004 H   0  0  0  0  0  0  0  0  0  0  0  0
   -1.9962   -1.9271    1.5955 H   0  0  0  0  0  0  0  0  0  0  0  0
   -1.6182   -2.8468   -2.0039 H   0  0  0  0  0  0  0  0  0  0  0  0
   -0.3047   -3.9297   -1.6169 H   0  0  0  0  0  0  0  0  0  0  0  0
    0.0321   -2.2064   -1.8607 H   0  0  0  0  0  0  0  0  0  0  0  0
    0.1529   -2.9830    1.9326 H   0  0  0  0  0  0  0  0  0  0  0  0
    1.2396   -2.7342    0.5595 H   0  0  0  0  0  0  0  0  0  0  0  0
    0.3890   -4.2851    0.7581 H   0  0  0  0  0  0  0  0  0  0  0  0
    4.6239    0.6626    1.1581 H   0  0  0  0  0  0  0  0  0  0  0  0
    3.7547   -0.8774    1.4239 H   0  0  0  0  0  0  0  0  0  0  0  0
    4.7336   -1.7783   -0.6881 H   0  0  0  0  0  0  0  0  0  0  0  0
    5.5889   -0.2637   -0.9506 H   0  0  0  0  0  0  0  0  0  0  0  0
    6.0149   -1.2842    0.4444 H   0  0  0  0  0  0  0  0  0  0  0  0
  1 10  1  0  0  0  0
  1 15  1  0  0  0  0
  2 15  2  0  0  0  0
  3 16  1  0  0  0  0
  3 17  1  0  0  0  0
  4 16  2  0  0  0  0
  5  6  1  0  0  0  0
  5  7  1  0  0  0  0
  5  9  1  0  0  0  0
  5 19  1  0  0  0  0
  6  8  1  0  0  0  0
  6 20  1  0  0  0  0
  6 21  1  0  0  0  0
  7 10  1  0  0  0  0
  7 22  1  0  0  0  0
  7 23  1  0  0  0  0
  8 11  1  0  0  0  0
  8 24  1  0  0  0  0
  8 25  1  0  0  0  0
  9 26  1  0  0  0  0
  9 27  1  0  0  0  0
  9 28  1  0  0  0  0
 10 29  1  0  0  0  0
 10 30  1  0  0  0  0
 11 12  2  0  0  0  0
 11 31  1  0  0  0  0
 12 13  1  0  0  0  0
 12 14  1  0  0  0  0
 13 32  1  0  0  0  0
 13 33  1  0  0  0  0
 13 34  1  0  0  0  0
 14 35  1  0  0  0  0
 14 36  1  0  0  0  0
 14 37  1  0  0  0  0
 15 16  1  0  0  0  0
 17 18  1  0  0  0  0
 17 38  1  0  0  0  0
 17 39  1  0  0  0  0
 18 40  1  0  0  0  0
 18 41  1  0  0  0  0
 18 42  1  0  0  0  0
M  END
> <PUBCHEM_COMPOUND_CID>
108515

> <PUBCHEM_CONFORMER_RMSD>
1

> <PUBCHEM_CONFORMER_DIVERSEORDER>
5
179
22
7
290
51
214
418
150
87
69
16
138
101
219
18
20
171
240
111
63
122
459
339
82
469
156
257
425
488
170
88
526
153
107
444
45
429
157
161
58
15
49
264
301
31
337
60
256
66
133
137
504
114
3
1
453
112
505
383
104
358
388
9
288
113
511
303
68
445
11
81
96
127
242
28
460
25
139
2
21
41
420
195
14
263
135
199
136
71
72
216
207
229
246
371
121
129
12
70
253
377
148
235
259
116
125
95
67
76
335
62
42
217
13
531
203
181
64
53
274
91
361
17
270
83
516
215
474
198
282
94
118
77
155
59
4

> <PUBCHEM_MMFF94_PARTIAL_CHARGES>
14
1 -0.43
10 0.28
11 -0.29
12 -0.28
13 0.14
14 0.14
15 0.72
16 0.72
17 0.28
2 -0.57
3 -0.43
31 0.15
4 -0.57
8 0.14

> <PUBCHEM_EFFECTIVE_ROTOR_COUNT>
10

> <PUBCHEM_PHARMACOPHORE_FEATURES>
5
1 2 acceptor
1 4 acceptor
1 9 hydrophobe
3 12 13 14 hydrophobe
5 5 6 7 8 11 hydrophobe

> <PUBCHEM_HEAVY_ATOM_COUNT>
18

> <PUBCHEM_ATOM_DEF_STEREO_COUNT>
0

> <PUBCHEM_ATOM_UDEF_STEREO_COUNT>
1

> <PUBCHEM_BOND_DEF_STEREO_COUNT>
0

> <PUBCHEM_BOND_UDEF_STEREO_COUNT>
0

> <PUBCHEM_ISOTOPIC_ATOM_COUNT>
0

> <PUBCHEM_COMPONENT_COUNT>
1

> <PUBCHEM_CACTVS_TAUTO_COUNT>
1

> <PUBCHEM_CONFORMER_ID>
0001A7E300000005

> <PUBCHEM_MMFF94_ENERGY>
20.4923

> <PUBCHEM_FEATURE_SELFOVERLAP>
25.378

> <PUBCHEM_SHAPE_FINGERPRINT>
11458722 379 18408322172643177418
12507560 18 17775004522937048960
12633257 1 17775017828755950129
14022349 108 18049731711352589849
14081887 123 17839450429909587200
14178342 30 18270134417846701697
1420 336 17903072575202775307
14251711 518 17257381163429598239
14251740 79 18268720420255330050
14251745 187 18411978031757506386
14251751 93 18187639146814183730
14251757 5 18262535791924305726
15006816 218 18339364037274837294
15209289 33 18343582915019606312
17977361 122 18335134306310838731
20600515 1 18271254841116893148
20905425 154 18194122915122363103
21634736 98 17969788668954781700
23598291 2 17749118819389639948
465052 167 17605861294297992897
57583515 115 18409168792354137310
59755656 215 18263359193036885997
602551 16 18410569583564347040
6437827 68 18120937210061076430
81228 2 18121763191430175755

> <PUBCHEM_SHAPE_MULTIPOLES>
346.95
7.21
3.79
1.27
7.88
2.51
0.16
-0.4
-1.45
-2
0.2
0.02
-0.13
-0.33

> <PUBCHEM_SHAPE_SELFOVERLAP>
659.52

> <PUBCHEM_SHAPE_VOLUME>
213.4

> <PUBCHEM_COORDINATE_TYPE>
2
5
10

$$$$
