108506
  -OEChem-11232109073D

 38 37  0     1  0  0  0  0  0999 V2000
    1.9105    0.3901   -0.7632 O   0  0  0  0  0  0  0  0  0  0  0  0
    1.9494    1.1376    1.4222 O   0  0  0  0  0  0  0  0  0  0  0  0
    0.9167   -0.5856   -0.4147 C   0  0  2  0  0  0  0  0  0  0  0  0
   -0.3155    0.1839    0.1135 C   0  0  0  0  0  0  0  0  0  0  0  0
   -1.5587   -0.6734    0.3782 C   0  0  0  0  0  0  0  0  0  0  0  0
   -2.7896    0.1506    0.8122 C   0  0  1  0  0  0  0  0  0  0  0  0
    1.5586   -1.5414    0.6121 C   0  0  0  0  0  0  0  0  0  0  0  0
   -3.2212    1.2384   -0.1915 C   0  0  0  0  0  0  0  0  0  0  0  0
    0.5835   -1.3633   -1.6944 C   0  0  0  0  0  0  0  0  0  0  0  0
   -3.9523   -0.7940    1.1373 C   0  0  0  0  0  0  0  0  0  0  0  0
    2.8514   -2.1991    0.1422 C   0  0  0  0  0  0  0  0  0  0  0  0
   -3.6270    0.7294   -1.5678 C   0  0  0  0  0  0  0  0  0  0  0  0
    2.3320    1.1819    0.2609 C   0  0  0  0  0  0  0  0  0  0  0  0
    3.3620    2.1448   -0.2471 C   0  0  0  0  0  0  0  0  0  0  0  0
   -0.1266    0.7241    1.0426 H   0  0  0  0  0  0  0  0  0  0  0  0
   -0.5508    0.9591   -0.6259 H   0  0  0  0  0  0  0  0  0  0  0  0
   -1.8182   -1.2542   -0.5132 H   0  0  0  0  0  0  0  0  0  0  0  0
   -1.3266   -1.4007    1.1659 H   0  0  0  0  0  0  0  0  0  0  0  0
   -2.5282    0.6680    1.7455 H   0  0  0  0  0  0  0  0  0  0  0  0
    1.7490   -1.0714    1.5799 H   0  0  0  0  0  0  0  0  0  0  0  0
    0.8451   -2.3458    0.8355 H   0  0  0  0  0  0  0  0  0  0  0  0
   -4.0737    1.7845    0.2331 H   0  0  0  0  0  0  0  0  0  0  0  0
   -2.4271    1.9844   -0.3045 H   0  0  0  0  0  0  0  0  0  0  0  0
   -0.0094   -2.2610   -1.4942 H   0  0  0  0  0  0  0  0  0  0  0  0
    0.0224   -0.7298   -2.3920 H   0  0  0  0  0  0  0  0  0  0  0  0
    1.4895   -1.6582   -2.2351 H   0  0  0  0  0  0  0  0  0  0  0  0
   -4.2215   -1.4190    0.2800 H   0  0  0  0  0  0  0  0  0  0  0  0
   -3.6831   -1.4631    1.9620 H   0  0  0  0  0  0  0  0  0  0  0  0
   -4.8399   -0.2312    1.4446 H   0  0  0  0  0  0  0  0  0  0  0  0
    3.2571   -2.8264    0.9434 H   0  0  0  0  0  0  0  0  0  0  0  0
    2.6878   -2.8492   -0.7218 H   0  0  0  0  0  0  0  0  0  0  0  0
    3.6157   -1.4602   -0.1154 H   0  0  0  0  0  0  0  0  0  0  0  0
   -4.4780    0.0450   -1.5117 H   0  0  0  0  0  0  0  0  0  0  0  0
   -3.9233    1.5715   -2.2021 H   0  0  0  0  0  0  0  0  0  0  0  0
   -2.7991    0.2170   -2.0661 H   0  0  0  0  0  0  0  0  0  0  0  0
    2.9257    2.7799   -1.0220 H   0  0  0  0  0  0  0  0  0  0  0  0
    4.2222    1.5953   -0.6377 H   0  0  0  0  0  0  0  0  0  0  0  0
    3.6999    2.7815    0.5756 H   0  0  0  0  0  0  0  0  0  0  0  0
  1  3  1  0  0  0  0
  1 13  1  0  0  0  0
  2 13  2  0  0  0  0
  3  4  1  0  0  0  0
  3  7  1  0  0  0  0
  3  9  1  0  0  0  0
  4  5  1  0  0  0  0
  4 15  1  0  0  0  0
  4 16  1  0  0  0  0
  5  6  1  0  0  0  0
  5 17  1  0  0  0  0
  5 18  1  0  0  0  0
  6  8  1  0  0  0  0
  6 10  1  0  0  0  0
  6 19  1  0  0  0  0
  7 11  1  0  0  0  0
  7 20  1  0  0  0  0
  7 21  1  0  0  0  0
  8 12  1  0  0  0  0
  8 22  1  0  0  0  0
  8 23  1  0  0  0  0
  9 24  1  0  0  0  0
  9 25  1  0  0  0  0
  9 26  1  0  0  0  0
 10 27  1  0  0  0  0
 10 28  1  0  0  0  0
 10 29  1  0  0  0  0
 11 30  1  0  0  0  0
 11 31  1  0  0  0  0
 11 32  1  0  0  0  0
 12 33  1  0  0  0  0
 12 34  1  0  0  0  0
 12 35  1  0  0  0  0
 13 14  1  0  0  0  0
 14 36  1  0  0  0  0
 14 37  1  0  0  0  0
 14 38  1  0  0  0  0
M  END
> <PUBCHEM_COMPOUND_CID>
108506

> <PUBCHEM_CONFORMER_RMSD>
0.8

> <PUBCHEM_CONFORMER_DIVERSEORDER>
2
84
37
52
101
98
92
1
118
106
95
115
79
48
107
109
43
70
90
105
45
97
112
100
83
35
73
108
99
75
12
63
76
7
111
9
91
113
66
86
21
87
71
54
93
96
72
28
59
14
104
50
24
62
64
13
116
80
32
25
85
30
67
69
68
114
89
78
27
82
42
4
10
117
119
44
103
36
20
11
38
29
110
88
46
53
60
51
61
16
33
65
74
3
55
40
94
15
34
81
5
6
77
57
26
19
47
41
23
102
22
49
18
56
8
17
39
58
31

> <PUBCHEM_MMFF94_PARTIAL_CHARGES>
5
1 -0.43
13 0.66
14 0.06
2 -0.57
3 0.28

> <PUBCHEM_EFFECTIVE_ROTOR_COUNT>
7

> <PUBCHEM_PHARMACOPHORE_FEATURES>
5
1 10 hydrophobe
1 11 hydrophobe
1 12 hydrophobe
1 2 acceptor
4 4 5 6 8 hydrophobe

> <PUBCHEM_HEAVY_ATOM_COUNT>
14

> <PUBCHEM_ATOM_DEF_STEREO_COUNT>
0

> <PUBCHEM_ATOM_UDEF_STEREO_COUNT>
2

> <PUBCHEM_BOND_DEF_STEREO_COUNT>
0

> <PUBCHEM_BOND_UDEF_STEREO_COUNT>
0

> <PUBCHEM_ISOTOPIC_ATOM_COUNT>
0

> <PUBCHEM_COMPONENT_COUNT>
1

> <PUBCHEM_CACTVS_TAUTO_COUNT>
1

> <PUBCHEM_CONFORMER_ID>
0001A7DA00000002

> <PUBCHEM_MMFF94_ENERGY>
29.1202

> <PUBCHEM_FEATURE_SELFOVERLAP>
25.424

> <PUBCHEM_SHAPE_FINGERPRINT>
10219947 1 17773307946641758438
10608611 8 18260266330761798901
107287 299 18272943742626514505
10922049 32 18267036127138725284
124424 183 18190176780753895775
12500047 106 17531806832003162251
12932764 1 18337402581977741599
13134695 92 18197486342877049558
13296908 3 18260271824156663987
13296909 8 16805593815877954333
14178342 30 15864067680875898361
15219456 202 18260547814022235657
15775835 57 18129388248855676560
170605 34 18271820063180795162
18186145 218 18114747023535013963
19786989 88 18202572773861694927
20645477 70 18341891853646986407
20671657 53 18194410982931784754
20715346 28 18040156201867025139
21524375 3 18127416876268299164
21639500 275 18131340925793429057
21730867 7 18260274052838573771
21947302 44 18410008806368706433
22096605 113 18341879819048350565
22892500 29 18188759540208891423
22943178 12 18041000622565558475
230 275 18413388747909201624
23382010 3 15051173518702915796
23557571 272 17530686524275620925
23598291 2 16845021104480364005
276578 36 18341899653333644840
305870 269 18337950198918755330
3248919 1 17632298926359203707
53748568 43 16271938112090229309
6049 1 17968670332421751313
7364860 26 18412269411007851306
74978 22 18263083223786054139
7615 1 17560516205885585033
8030462 33 15841552934113593423
81539 233 18336549408262329884

> <PUBCHEM_SHAPE_MULTIPOLES>
276.37
6.8
2.07
1.35
4.55
0.01
-0.36
-1.65
0.45
-2.28
-0.01
0.63
0.11
0.77

> <PUBCHEM_SHAPE_SELFOVERLAP>
518.15

> <PUBCHEM_SHAPE_VOLUME>
172.7

> <PUBCHEM_COORDINATE_TYPE>
2
5
10

$$$$
