108507
  -OEChem-11232109063D

 32 31  0     1  0  0  0  0  0999 V2000
    2.0657   -1.2476    0.4331 O   0  0  0  0  0  0  0  0  0  0  0  0
    1.6195   -0.1184   -0.3381 C   0  0  2  0  0  0  0  0  0  0  0  0
    0.1189   -0.3458   -0.6422 C   0  0  0  0  0  0  0  0  0  0  0  0
   -0.7563   -0.6343    0.5823 C   0  0  0  0  0  0  0  0  0  0  0  0
    2.4543   -0.1448   -1.6245 C   0  0  0  0  0  0  0  0  0  0  0  0
    1.8170    1.1105    0.5255 C   0  0  0  0  0  0  0  0  0  0  0  0
   -2.1776   -0.9104    0.1755 C   0  0  0  0  0  0  0  0  0  0  0  0
   -3.1811   -0.0219    0.0458 C   0  0  0  0  0  0  0  0  0  0  0  0
    3.4304   -1.1131    0.7817 C   0  0  0  0  0  0  0  0  0  0  0  0
    2.1382    2.3463    0.1233 C   0  0  0  0  0  0  0  0  0  0  0  0
   -4.5854   -0.3624   -0.3660 C   0  0  0  0  0  0  0  0  0  0  0  0
   -2.9437    1.4419    0.3036 C   0  0  0  0  0  0  0  0  0  0  0  0
   -0.2769    0.5187   -1.1921 H   0  0  0  0  0  0  0  0  0  0  0  0
    0.0339   -1.2080   -1.3193 H   0  0  0  0  0  0  0  0  0  0  0  0
   -0.7075    0.1812    1.3104 H   0  0  0  0  0  0  0  0  0  0  0  0
   -0.3859   -1.5209    1.1113 H   0  0  0  0  0  0  0  0  0  0  0  0
    2.5121   -1.1567   -2.0427 H   0  0  0  0  0  0  0  0  0  0  0  0
    2.0094    0.5054   -2.3872 H   0  0  0  0  0  0  0  0  0  0  0  0
    3.4811    0.2094   -1.4791 H   0  0  0  0  0  0  0  0  0  0  0  0
    1.6156    0.9888    1.5899 H   0  0  0  0  0  0  0  0  0  0  0  0
   -2.3953   -1.9550   -0.0423 H   0  0  0  0  0  0  0  0  0  0  0  0
    4.0910   -1.3052   -0.0687 H   0  0  0  0  0  0  0  0  0  0  0  0
    3.6473   -1.9053    1.5069 H   0  0  0  0  0  0  0  0  0  0  0  0
    3.6967   -0.1743    1.2739 H   0  0  0  0  0  0  0  0  0  0  0  0
    2.2198    3.1531    0.8436 H   0  0  0  0  0  0  0  0  0  0  0  0
    2.3193    2.5790   -0.9195 H   0  0  0  0  0  0  0  0  0  0  0  0
   -4.8475    0.1533   -1.2953 H   0  0  0  0  0  0  0  0  0  0  0  0
   -5.2940   -0.0636    0.4130 H   0  0  0  0  0  0  0  0  0  0  0  0
   -4.7067   -1.4376   -0.5341 H   0  0  0  0  0  0  0  0  0  0  0  0
   -3.4874    1.7553    1.2010 H   0  0  0  0  0  0  0  0  0  0  0  0
   -1.8953    1.7180    0.4335 H   0  0  0  0  0  0  0  0  0  0  0  0
   -3.3148    2.0324   -0.5417 H   0  0  0  0  0  0  0  0  0  0  0  0
  1  2  1  0  0  0  0
  1  9  1  0  0  0  0
  2  3  1  0  0  0  0
  2  5  1  0  0  0  0
  2  6  1  0  0  0  0
  3  4  1  0  0  0  0
  3 13  1  0  0  0  0
  3 14  1  0  0  0  0
  4  7  1  0  0  0  0
  4 15  1  0  0  0  0
  4 16  1  0  0  0  0
  5 17  1  0  0  0  0
  5 18  1  0  0  0  0
  5 19  1  0  0  0  0
  6 10  2  0  0  0  0
  6 20  1  0  0  0  0
  7  8  2  0  0  0  0
  7 21  1  0  0  0  0
  8 11  1  0  0  0  0
  8 12  1  0  0  0  0
  9 22  1  0  0  0  0
  9 23  1  0  0  0  0
  9 24  1  0  0  0  0
 10 25  1  0  0  0  0
 10 26  1  0  0  0  0
 11 27  1  0  0  0  0
 11 28  1  0  0  0  0
 11 29  1  0  0  0  0
 12 30  1  0  0  0  0
 12 31  1  0  0  0  0
 12 32  1  0  0  0  0
M  END
> <PUBCHEM_COMPOUND_CID>
108507

> <PUBCHEM_CONFORMER_RMSD>
0.6

> <PUBCHEM_CONFORMER_DIVERSEORDER>
11
83
1
113
72
108
51
46
93
88
17
77
95
49
68
107
102
55
9
62
8
90
41
38
35
70
52
3
97
36
78
81
54
58
75
53
86
19
106
21
37
44
34
112
50
7
67
63
16
79
91
74
96
32
80
61
98
109
82
12
87
30
13
64
92
60
48
27
47
22
66
23
10
57
69
65
42
43
71
73
2
25
56
29
59
100
84
14
26
24
18
103
31
20
85
33
5
28
104
6
110
99
4
39
105
94
40
15
101
89
45
76
111

> <PUBCHEM_MMFF94_PARTIAL_CHARGES>
14
1 -0.56
10 -0.3
11 0.14
12 0.14
2 0.42
20 0.15
21 0.15
25 0.15
26 0.15
4 0.14
6 -0.29
7 -0.29
8 -0.28
9 0.28

> <PUBCHEM_EFFECTIVE_ROTOR_COUNT>
5

> <PUBCHEM_PHARMACOPHORE_FEATURES>
3
1 1 acceptor
1 10 hydrophobe
3 8 11 12 hydrophobe

> <PUBCHEM_HEAVY_ATOM_COUNT>
12

> <PUBCHEM_ATOM_DEF_STEREO_COUNT>
0

> <PUBCHEM_ATOM_UDEF_STEREO_COUNT>
1

> <PUBCHEM_BOND_DEF_STEREO_COUNT>
0

> <PUBCHEM_BOND_UDEF_STEREO_COUNT>
0

> <PUBCHEM_ISOTOPIC_ATOM_COUNT>
0

> <PUBCHEM_COMPONENT_COUNT>
1

> <PUBCHEM_CACTVS_TAUTO_COUNT>
1

> <PUBCHEM_CONFORMER_ID>
0001A7DB0000000B

> <PUBCHEM_MMFF94_ENERGY>
30.1649

> <PUBCHEM_FEATURE_SELFOVERLAP>
15.223

> <PUBCHEM_SHAPE_FINGERPRINT>
10130415 120 18187083901921308762
12162725 195 18343582936821490425
12251169 10 18411692201430619906
124424 183 18261672584347528219
12932764 1 18336840778638144019
13922767 16 18409441470995018258
14144814 61 18409733937104308267
14344429 50 18411139143155886638
15775835 57 18261403200015089497
17041 49 18339079285359152432
17041 50 18201173069610378044
170605 34 18127976510422643380
17802600 8 18335413543947081373
18186145 218 18341900688452424465
19973954 147 18341056289033951833
20233049 118 18336839610575689036
20559304 39 18410293584038007314
20645477 70 18341894112699700215
20671657 1 18335988678585805460
212847 35 18186804634742560453
21524375 3 17552919937758400536
21947302 44 18340204201628936801
22096605 113 18199184169192848337
230 275 18337956804188358840
23380061 81 16877951528886708375
23402539 116 18200580437670613543
23557571 272 17132109109477979035
3248919 1 17489878149941643787
3286 77 18334850606704254917
57812782 119 18272368659622636039
7364860 26 18411982481480378650
74978 22 18410862078773245147
8030462 33 18261120681276767535

> <PUBCHEM_SHAPE_MULTIPOLES>
241.09
7.14
1.69
1.02
6.2
1.06
0.3
-0.4
0.07
-1.06
-0.3
-0.73
-0.13
-0.23

> <PUBCHEM_SHAPE_SELFOVERLAP>
451.187

> <PUBCHEM_SHAPE_VOLUME>
151.8

> <PUBCHEM_COORDINATE_TYPE>
2
5
10

$$$$
