108518
  -OEChem-11232109253D

 35 34  0     1  0  0  0  0  0999 V2000
    1.7245    0.5728   -0.2515 O   0  0  0  0  0  0  0  0  0  0  0  0
    3.4328    1.2810    1.1331 O   0  0  0  0  0  0  0  0  0  0  0  0
    0.0300   -1.0854    0.1512 C   0  0  0  0  0  0  0  0  0  0  0  0
   -1.0891   -0.0475    0.3096 C   0  0  0  0  0  0  0  0  0  0  0  0
    1.3955   -0.5359    0.5870 C   0  0  1  0  0  0  0  0  0  0  0  0
   -2.4722   -0.5798   -0.0793 C   0  0  0  0  0  0  0  0  0  0  0  0
   -3.6001    0.4302    0.1439 C   0  0  0  0  0  0  0  0  0  0  0  0
    2.5241   -1.5680    0.4728 C   0  0  0  0  0  0  0  0  0  0  0  0
   -4.9526   -0.1509   -0.2709 C   0  0  0  0  0  0  0  0  0  0  0  0
    2.6925   -2.1446   -0.9234 C   0  0  0  0  0  0  0  0  0  0  0  0
   -6.0743    0.8580   -0.0817 C   0  0  0  0  0  0  0  0  0  0  0  0
    2.9053    1.1953    0.0324 C   0  0  0  0  0  0  0  0  0  0  0  0
    3.4836    1.7748   -1.2229 C   0  0  0  0  0  0  0  0  0  0  0  0
   -0.2116   -1.9797    0.7374 H   0  0  0  0  0  0  0  0  0  0  0  0
    0.0566   -1.3749   -0.9057 H   0  0  0  0  0  0  0  0  0  0  0  0
   -1.1180    0.2893    1.3533 H   0  0  0  0  0  0  0  0  0  0  0  0
   -0.8664    0.8353   -0.3019 H   0  0  0  0  0  0  0  0  0  0  0  0
    1.3213   -0.1877    1.6253 H   0  0  0  0  0  0  0  0  0  0  0  0
   -2.6824   -1.4860    0.5024 H   0  0  0  0  0  0  0  0  0  0  0  0
   -2.4546   -0.8787   -1.1347 H   0  0  0  0  0  0  0  0  0  0  0  0
   -3.6304    0.7195    1.2012 H   0  0  0  0  0  0  0  0  0  0  0  0
   -3.3953    1.3390   -0.4347 H   0  0  0  0  0  0  0  0  0  0  0  0
    2.3115   -2.3954    1.1615 H   0  0  0  0  0  0  0  0  0  0  0  0
    3.4871   -1.1571    0.7913 H   0  0  0  0  0  0  0  0  0  0  0  0
   -4.9200   -0.4568   -1.3231 H   0  0  0  0  0  0  0  0  0  0  0  0
   -5.1701   -1.0473    0.3213 H   0  0  0  0  0  0  0  0  0  0  0  0
    1.8285   -2.7473   -1.2184 H   0  0  0  0  0  0  0  0  0  0  0  0
    2.8439   -1.3643   -1.6741 H   0  0  0  0  0  0  0  0  0  0  0  0
    3.5669   -2.8038   -0.9486 H   0  0  0  0  0  0  0  0  0  0  0  0
   -7.0316    0.4215   -0.3832 H   0  0  0  0  0  0  0  0  0  0  0  0
   -6.1547    1.1628    0.9665 H   0  0  0  0  0  0  0  0  0  0  0  0
   -5.9032    1.7532   -0.6880 H   0  0  0  0  0  0  0  0  0  0  0  0
    2.7707    2.4699   -1.6736 H   0  0  0  0  0  0  0  0  0  0  0  0
    3.7350    0.9740   -1.9221 H   0  0  0  0  0  0  0  0  0  0  0  0
    4.3963    2.3265   -0.9797 H   0  0  0  0  0  0  0  0  0  0  0  0
  1  5  1  0  0  0  0
  1 12  1  0  0  0  0
  2 12  2  0  0  0  0
  3  4  1  0  0  0  0
  3  5  1  0  0  0  0
  3 14  1  0  0  0  0
  3 15  1  0  0  0  0
  4  6  1  0  0  0  0
  4 16  1  0  0  0  0
  4 17  1  0  0  0  0
  5  8  1  0  0  0  0
  5 18  1  0  0  0  0
  6  7  1  0  0  0  0
  6 19  1  0  0  0  0
  6 20  1  0  0  0  0
  7  9  1  0  0  0  0
  7 21  1  0  0  0  0
  7 22  1  0  0  0  0
  8 10  1  0  0  0  0
  8 23  1  0  0  0  0
  8 24  1  0  0  0  0
  9 11  1  0  0  0  0
  9 25  1  0  0  0  0
  9 26  1  0  0  0  0
 10 27  1  0  0  0  0
 10 28  1  0  0  0  0
 10 29  1  0  0  0  0
 11 30  1  0  0  0  0
 11 31  1  0  0  0  0
 11 32  1  0  0  0  0
 12 13  1  0  0  0  0
 13 33  1  0  0  0  0
 13 34  1  0  0  0  0
 13 35  1  0  0  0  0
M  END
> <PUBCHEM_COMPOUND_CID>
108518

> <PUBCHEM_CONFORMER_RMSD>
0.8

> <PUBCHEM_CONFORMER_DIVERSEORDER>
1
71
20
184
8
200
176
104
16
191
136
196
41
199
64
177
102
2
153
159
83
179
152
188
63
94
40
37
39
111
110
72
164
127
25
121
135
180
161
14
201
150
67
10
19
29
169
76
145
163
30
42
190
24
23
133
195
55
12
124
172
17
182
192
160
22
70
96
117
5
155
113
47
92
151
11
78
26
131
86
33
34
81
62
126
108
103
3
57
174
84
123
154
189
183
119
116
198
49
87
56
187
142
28
35
43
122
166
32
175
66
157
27
106
143
130
58
140
60
197
95
158
129
48
105
156
13
53
97
18
54
138
141
147
91
7
173
170
137
73
75
99
149
148
38
44
98
112
114
85
45
146
178
79
46
88
80
125
51
4
128
167
89
181
90
52
9
120
82
6
69
132
139
107
50
93
31
74
193
15
101
115
118
61
165
109
77
21
162
100
68
65
168
36
185
171
59
134
186
144
194

> <PUBCHEM_MMFF94_PARTIAL_CHARGES>
5
1 -0.43
12 0.66
13 0.06
2 -0.57
5 0.28

> <PUBCHEM_EFFECTIVE_ROTOR_COUNT>
8

> <PUBCHEM_PHARMACOPHORE_FEATURES>
4
1 10 hydrophobe
1 11 hydrophobe
1 2 acceptor
5 3 4 6 7 9 hydrophobe

> <PUBCHEM_HEAVY_ATOM_COUNT>
13

> <PUBCHEM_ATOM_DEF_STEREO_COUNT>
0

> <PUBCHEM_ATOM_UDEF_STEREO_COUNT>
1

> <PUBCHEM_BOND_DEF_STEREO_COUNT>
0

> <PUBCHEM_BOND_UDEF_STEREO_COUNT>
0

> <PUBCHEM_ISOTOPIC_ATOM_COUNT>
0

> <PUBCHEM_COMPONENT_COUNT>
1

> <PUBCHEM_CACTVS_TAUTO_COUNT>
1

> <PUBCHEM_CONFORMER_ID>
0001A7E600000001

> <PUBCHEM_MMFF94_ENERGY>
10.2588

> <PUBCHEM_FEATURE_SELFOVERLAP>
20.298

> <PUBCHEM_SHAPE_FINGERPRINT>
12346645 6 18412824685822962270
12616999 72 18343584066039212587
13081056 2 18260829255356684845
14178000 15 18058449807631545850
14897335 6 18412259579447909155
15342168 16 18041283278531694893
17834072 32 17970353834758120892
17834072 33 18272928345770275111
18186145 218 18186799145779630739
20388580 30 17916036659387633974
20645477 70 18341895156371582231
212847 35 18410291415048095305
23048698 100 18412546483780012979
23402655 69 18342175583338836127
23532345 1 18187650214739086369
23590187 302 18130794447107977910
23598291 2 17843985666170575089
3060560 45 17274826878299212516
32948 21 13470142756664475883
3545911 37 18410014355629775307
42 15 9007060180111829563
449060 50 18114184163876152093
449060 62 18335422382652107981
522135 26 18272089370594504895
633830 44 18334572409331332207
7364860 26 18201719531569523498
81539 233 18334579083388503558
90127 26 18114189588678485289

> <PUBCHEM_SHAPE_MULTIPOLES>
255.8
10.92
1.87
0.93
18.39
0.18
-0.07
-3.88
-1.13
-2.84
-0.41
-0.87
-0.1
-0.01

> <PUBCHEM_SHAPE_SELFOVERLAP>
468.105

> <PUBCHEM_SHAPE_VOLUME>
162.7

> <PUBCHEM_COORDINATE_TYPE>
2
5
10

$$$$
