108630
  -OEChem-11232108513D

 30 32  0     1  0  0  0  0  0999 V2000
    1.9477    0.1421   -0.8760 O   0  0  0  0  0  0  0  0  0  0  0  0
    2.5670    0.0396    1.3664 O   0  0  0  0  0  0  0  0  0  0  0  0
   -2.3471   -0.3450    0.6518 C   0  0  1  0  0  0  0  0  0  0  0  0
   -0.9180    1.2367   -0.0041 C   0  0  2  0  0  0  0  0  0  0  0  0
   -1.5075   -1.0729   -0.4271 C   0  0  1  0  0  0  0  0  0  0  0  0
   -0.5163    0.0323   -0.8857 C   0  0  2  0  0  0  0  0  0  0  0  0
   -1.3296    0.5829    1.3187 C   0  0  0  0  0  0  0  0  0  0  0  0
   -3.2595    0.6761   -0.0553 C   0  0  0  0  0  0  0  0  0  0  0  0
   -2.2740    1.7669   -0.5071 C   0  0  0  0  0  0  0  0  0  0  0  0
   -0.6617   -2.2448    0.1025 C   0  0  0  0  0  0  0  0  0  0  0  0
    0.8165   -0.5654   -0.5895 C   0  0  0  0  0  0  0  0  0  0  0  0
    0.7505   -1.7935   -0.0686 C   0  0  0  0  0  0  0  0  0  0  0  0
    2.7614    0.3875    0.2087 C   0  0  0  0  0  0  0  0  0  0  0  0
    3.9707    1.1573   -0.2347 C   0  0  0  0  0  0  0  0  0  0  0  0
   -2.8861   -1.0143    1.3256 H   0  0  0  0  0  0  0  0  0  0  0  0
   -0.1514    2.0104    0.0786 H   0  0  0  0  0  0  0  0  0  0  0  0
   -2.1447   -1.4155   -1.2515 H   0  0  0  0  0  0  0  0  0  0  0  0
   -0.6120    0.2473   -1.9558 H   0  0  0  0  0  0  0  0  0  0  0  0
   -0.5172    0.0565    1.8272 H   0  0  0  0  0  0  0  0  0  0  0  0
   -1.7880    1.2884    2.0205 H   0  0  0  0  0  0  0  0  0  0  0  0
   -3.9899    1.0964    0.6455 H   0  0  0  0  0  0  0  0  0  0  0  0
   -3.8070    0.2414   -0.8975 H   0  0  0  0  0  0  0  0  0  0  0  0
   -2.2932    1.9163   -1.5912 H   0  0  0  0  0  0  0  0  0  0  0  0
   -2.5222    2.7202   -0.0267 H   0  0  0  0  0  0  0  0  0  0  0  0
   -0.8391   -3.1457   -0.4944 H   0  0  0  0  0  0  0  0  0  0  0  0
   -0.8788   -2.4787    1.1494 H   0  0  0  0  0  0  0  0  0  0  0  0
    1.6046   -2.3987    0.1994 H   0  0  0  0  0  0  0  0  0  0  0  0
    3.6621    2.1054   -0.6824 H   0  0  0  0  0  0  0  0  0  0  0  0
    4.5463    0.5628   -0.9485 H   0  0  0  0  0  0  0  0  0  0  0  0
    4.6024    1.3719    0.6321 H   0  0  0  0  0  0  0  0  0  0  0  0
  1 11  1  0  0  0  0
  1 13  1  0  0  0  0
  2 13  2  0  0  0  0
  3  5  1  0  0  0  0
  3  7  1  0  0  0  0
  3  8  1  0  0  0  0
  3 15  1  0  0  0  0
  4  6  1  0  0  0  0
  4  7  1  0  0  0  0
  4  9  1  0  0  0  0
  4 16  1  0  0  0  0
  5  6  1  0  0  0  0
  5 10  1  0  0  0  0
  5 17  1  0  0  0  0
  6 11  1  0  0  0  0
  6 18  1  0  0  0  0
  7 19  1  0  0  0  0
  7 20  1  0  0  0  0
  8  9  1  0  0  0  0
  8 21  1  0  0  0  0
  8 22  1  0  0  0  0
  9 23  1  0  0  0  0
  9 24  1  0  0  0  0
 10 12  1  0  0  0  0
 10 25  1  0  0  0  0
 10 26  1  0  0  0  0
 11 12  2  0  0  0  0
 12 27  1  0  0  0  0
 13 14  1  0  0  0  0
 14 28  1  0  0  0  0
 14 29  1  0  0  0  0
 14 30  1  0  0  0  0
M  END
> <PUBCHEM_COMPOUND_CID>
108630

> <PUBCHEM_CONFORMER_RMSD>
0.6

> <PUBCHEM_CONFORMER_DIVERSEORDER>
1
20
6
10
16
11
15
9
5
18
4
12
7
14
2
19
13
21
3
8
17

> <PUBCHEM_MMFF94_PARTIAL_CHARGES>
9
1 -0.23
10 0.14
11 -0.06
12 -0.29
13 0.66
14 0.06
2 -0.57
27 0.15
6 0.14

> <PUBCHEM_EFFECTIVE_ROTOR_COUNT>
2.8

> <PUBCHEM_PHARMACOPHORE_FEATURES>
3
1 2 acceptor
5 5 6 10 11 12 rings
7 3 4 5 6 7 8 9 rings

> <PUBCHEM_HEAVY_ATOM_COUNT>
14

> <PUBCHEM_ATOM_DEF_STEREO_COUNT>
0

> <PUBCHEM_ATOM_UDEF_STEREO_COUNT>
4

> <PUBCHEM_BOND_DEF_STEREO_COUNT>
0

> <PUBCHEM_BOND_UDEF_STEREO_COUNT>
0

> <PUBCHEM_ISOTOPIC_ATOM_COUNT>
0

> <PUBCHEM_COMPONENT_COUNT>
1

> <PUBCHEM_CACTVS_TAUTO_COUNT>
1

> <PUBCHEM_CONFORMER_ID>
0001A85600000001

> <PUBCHEM_MMFF94_ENERGY>
45.0244

> <PUBCHEM_FEATURE_SELFOVERLAP>
15.306

> <PUBCHEM_SHAPE_FINGERPRINT>
11132069 177 18272089447697967034
11769659 78 10665530533768343105
12138202 97 18059855094849945438
12251169 10 17603589637990758444
13024252 1 13912311408960832023
13299463 15 13470403344598086057
13571099 52 17823698568958694445
13764800 53 18271251620001190762
15309172 13 18408893935890205842
15775835 57 18408603673521294424
16945 1 18336273404994859063
17846911 113 18342452638525355793
20361792 2 8502365616298632144
20510252 161 18269561696309587858
20525323 117 18408038503138203367
20653085 51 15339127848389382306
20871998 184 18198070372219262703
21028194 46 18272651225378589086
21524375 3 18271803493218339118
23236772 104 17896597469611627442
23402539 116 18127685139873295591
23419403 2 17198802388332183611
2748010 2 18191883231637961447
305870 269 18335417903196585434
369184 2 16587742036184304469
5084963 1 18199481981866320447
5706482 22 18410282605980370403
7364860 26 17983295928309334511
81228 2 18053951928474021030

> <PUBCHEM_SHAPE_MULTIPOLES>
276.37
4.98
1.85
1.03
3.8
0.66
-0.21
-2.52
-0.3
-0.44
0.12
0.05
-0.09
0.07

> <PUBCHEM_SHAPE_SELFOVERLAP>
602.405

> <PUBCHEM_SHAPE_VOLUME>
155.7

> <PUBCHEM_COORDINATE_TYPE>
2
5
10

$$$$
