108625
  -OEChem-11232109103D

 43 42  0     0  0  0  0  0  0999 V2000
   -2.9322   -1.0207    0.3812 O   0  0  0  0  0  0  0  0  0  0  0  0
   -2.9071    1.3110   -0.0045 O   0  0  0  0  0  0  0  0  0  0  0  0
    1.1332    0.0458   -0.8884 C   0  0  0  0  0  0  0  0  0  0  0  0
    2.2656    0.1356    0.1364 C   0  0  0  0  0  0  0  0  0  0  0  0
   -0.2365    0.0681   -0.2042 C   0  0  0  0  0  0  0  0  0  0  0  0
    3.6620    0.0856   -0.4912 C   0  0  0  0  0  0  0  0  0  0  0  0
   -1.3704   -0.0595   -1.2299 C   0  0  0  0  0  0  0  0  0  0  0  0
    4.8376    0.1485    0.4884 C   0  0  0  0  0  0  0  0  0  0  0  0
   -2.7679    0.0110   -0.5956 C   0  0  0  0  0  0  0  0  0  0  0  0
    6.2031    0.0380   -0.1905 C   0  0  0  0  0  0  0  0  0  0  0  0
    7.3343    0.1138    0.8236 C   0  0  0  0  0  0  0  0  0  0  0  0
   -3.2384   -2.2865   -0.1872 C   0  0  0  0  0  0  0  0  0  0  0  0
   -4.2671    1.6667    0.2069 C   0  0  0  0  0  0  0  0  0  0  0  0
   -3.3911   -3.3024    0.9246 C   0  0  0  0  0  0  0  0  0  0  0  0
   -4.3252    3.0450    0.8302 C   0  0  0  0  0  0  0  0  0  0  0  0
    1.2090    0.8822   -1.5934 H   0  0  0  0  0  0  0  0  0  0  0  0
    1.2394   -0.8785   -1.4690 H   0  0  0  0  0  0  0  0  0  0  0  0
    2.1656    1.0660    0.7089 H   0  0  0  0  0  0  0  0  0  0  0  0
    2.1712   -0.6888    0.8541 H   0  0  0  0  0  0  0  0  0  0  0  0
   -0.3431    1.0019    0.3602 H   0  0  0  0  0  0  0  0  0  0  0  0
   -0.2971   -0.7554    0.5172 H   0  0  0  0  0  0  0  0  0  0  0  0
    3.7462   -0.8385   -1.0775 H   0  0  0  0  0  0  0  0  0  0  0  0
    3.7562    0.9133   -1.2057 H   0  0  0  0  0  0  0  0  0  0  0  0
   -1.2750    0.7565   -1.9575 H   0  0  0  0  0  0  0  0  0  0  0  0
   -1.2486   -0.9993   -1.7789 H   0  0  0  0  0  0  0  0  0  0  0  0
    4.7829    1.0904    1.0482 H   0  0  0  0  0  0  0  0  0  0  0  0
    4.7326   -0.6609    1.2216 H   0  0  0  0  0  0  0  0  0  0  0  0
   -3.5173   -0.0970   -1.3912 H   0  0  0  0  0  0  0  0  0  0  0  0
    6.3194    0.8451   -0.9229 H   0  0  0  0  0  0  0  0  0  0  0  0
    6.2703   -0.9095   -0.7373 H   0  0  0  0  0  0  0  0  0  0  0  0
    7.3124    1.0647    1.3655 H   0  0  0  0  0  0  0  0  0  0  0  0
    7.2627   -0.6995    1.5527 H   0  0  0  0  0  0  0  0  0  0  0  0
    8.3018    0.0329    0.3183 H   0  0  0  0  0  0  0  0  0  0  0  0
   -2.4386   -2.6100   -0.8600 H   0  0  0  0  0  0  0  0  0  0  0  0
   -4.1739   -2.2195   -0.7536 H   0  0  0  0  0  0  0  0  0  0  0  0
   -4.7420    0.9381    0.8730 H   0  0  0  0  0  0  0  0  0  0  0  0
   -4.8011    1.6755   -0.7498 H   0  0  0  0  0  0  0  0  0  0  0  0
   -2.4681   -3.3752    1.5093 H   0  0  0  0  0  0  0  0  0  0  0  0
   -4.1834   -2.9998    1.6173 H   0  0  0  0  0  0  0  0  0  0  0  0
   -3.6327   -4.2901    0.5219 H   0  0  0  0  0  0  0  0  0  0  0  0
   -3.7854    3.0601    1.7829 H   0  0  0  0  0  0  0  0  0  0  0  0
   -3.8436    3.7829    0.1800 H   0  0  0  0  0  0  0  0  0  0  0  0
   -5.3601    3.3515    1.0061 H   0  0  0  0  0  0  0  0  0  0  0  0
  1  9  1  0  0  0  0
  1 12  1  0  0  0  0
  2  9  1  0  0  0  0
  2 13  1  0  0  0  0
  3  4  1  0  0  0  0
  3  5  1  0  0  0  0
  3 16  1  0  0  0  0
  3 17  1  0  0  0  0
  4  6  1  0  0  0  0
  4 18  1  0  0  0  0
  4 19  1  0  0  0  0
  5  7  1  0  0  0  0
  5 20  1  0  0  0  0
  5 21  1  0  0  0  0
  6  8  1  0  0  0  0
  6 22  1  0  0  0  0
  6 23  1  0  0  0  0
  7  9  1  0  0  0  0
  7 24  1  0  0  0  0
  7 25  1  0  0  0  0
  8 10  1  0  0  0  0
  8 26  1  0  0  0  0
  8 27  1  0  0  0  0
  9 28  1  0  0  0  0
 10 11  1  0  0  0  0
 10 29  1  0  0  0  0
 10 30  1  0  0  0  0
 11 31  1  0  0  0  0
 11 32  1  0  0  0  0
 11 33  1  0  0  0  0
 12 14  1  0  0  0  0
 12 34  1  0  0  0  0
 12 35  1  0  0  0  0
 13 15  1  0  0  0  0
 13 36  1  0  0  0  0
 13 37  1  0  0  0  0
 14 38  1  0  0  0  0
 14 39  1  0  0  0  0
 14 40  1  0  0  0  0
 15 41  1  0  0  0  0
 15 42  1  0  0  0  0
 15 43  1  0  0  0  0
M  END
> <PUBCHEM_COMPOUND_CID>
108625

> <PUBCHEM_CONFORMER_RMSD>
1

> <PUBCHEM_CONFORMER_DIVERSEORDER>
1
62
109
74
50
120
70
94
107
68
122
32
114
96
16
9
21
4
52
44
39
38
64
63
36
27
29
126
116
135
83
98
86
77
69
2
113
117
100
123
124
137
18
99
37
51
119
104
121
26
136
23
132
92
66
53
67
129
81
87
103
60
125
84
106
55
93
73
57
19
58
89
14
13
101
47
25
43
22
12
54
112
41
108
78
79
8
61
75
111
3
127
91
80
72
133
7
40
130
131
6
20
30
85
118
71
128
88
102
11
65
45
33
76
34
49
24
105
134
5
28
59
56
115
95
110
10
15
35
82
31
90
17
42
46
48
97

> <PUBCHEM_MMFF94_PARTIAL_CHARGES>
5
1 -0.56
12 0.28
13 0.28
2 -0.56
9 0.56

> <PUBCHEM_EFFECTIVE_ROTOR_COUNT>
11

> <PUBCHEM_PHARMACOPHORE_FEATURES>
3
1 1 acceptor
1 11 hydrophobe
1 2 acceptor

> <PUBCHEM_HEAVY_ATOM_COUNT>
15

> <PUBCHEM_ATOM_DEF_STEREO_COUNT>
0

> <PUBCHEM_ATOM_UDEF_STEREO_COUNT>
0

> <PUBCHEM_BOND_DEF_STEREO_COUNT>
0

> <PUBCHEM_BOND_UDEF_STEREO_COUNT>
0

> <PUBCHEM_ISOTOPIC_ATOM_COUNT>
0

> <PUBCHEM_COMPONENT_COUNT>
1

> <PUBCHEM_CACTVS_TAUTO_COUNT>
1

> <PUBCHEM_CONFORMER_ID>
0001A85100000001

> <PUBCHEM_MMFF94_ENERGY>
8.4778

> <PUBCHEM_FEATURE_SELFOVERLAP>
15.261

> <PUBCHEM_SHAPE_FINGERPRINT>
10291535 26 17489312945262424049
10680689 15 17846213392903640830
10912923 1 17895194437435856580
11036077 4 18260547810117801747
11315181 36 18259982712596134876
11545043 162 18271803562322665218
12091667 2 17989481944689703460
12616971 3 17022911146709766852
13214271 11 18272931626376177309
14178342 30 18334585637403336263
14251732 16 18189051074996066924
17093844 174 18060129947556537762
17844677 252 18270965756048211120
20281389 69 18201435831705100464
20645477 56 18340489976300537709
21426921 1 18412263969442425847
220451 1 17894631427595616090
23081809 10 17676488372205349974
23402539 116 16298379163451674678
5104073 3 18336540612443952528
57265010 4 18409450284658195823
77188 2 17906455786109908335
90127 26 17917985109955753992

> <PUBCHEM_SHAPE_MULTIPOLES>
296.95
15.57
2.7
0.99
30.84
0.91
0.05
-2.81
-4.53
-7.93
-1.25
-0.12
0.06
-0.1

> <PUBCHEM_SHAPE_SELFOVERLAP>
531.509

> <PUBCHEM_SHAPE_VOLUME>
192.3

> <PUBCHEM_COORDINATE_TYPE>
2
5
10

$$$$
