10877336
  -OEChem-11232108593D

 25 25  0     1  0  0  0  0  0999 V2000
   -2.1540    0.2685    0.4046 O   0  0  0  0  0  0  0  0  0  0  0  0
   -1.1611   -0.1655   -1.6324 O   0  0  0  0  0  0  0  0  0  0  0  0
    1.3815    0.4055   -0.3914 C   0  0  1  0  0  0  0  0  0  0  0  0
    1.5812   -1.0749   -0.0346 C   0  0  0  0  0  0  0  0  0  0  0  0
    3.0757   -1.2438    0.2400 C   0  0  0  0  0  0  0  0  0  0  0  0
    0.0668    0.9558    0.1411 C   0  0  0  0  0  0  0  0  0  0  0  0
    2.5840    1.0478    0.2287 C   0  0  0  0  0  0  0  0  0  0  0  0
    3.5088    0.1450    0.5685 C   0  0  0  0  0  0  0  0  0  0  0  0
   -1.1267    0.2856   -0.4958 C   0  0  0  0  0  0  0  0  0  0  0  0
   -3.3658   -0.3389   -0.0547 C   0  0  0  0  0  0  0  0  0  0  0  0
   -4.3902   -0.2852    1.0261 C   0  0  0  0  0  0  0  0  0  0  0  0
    1.4347    0.5398   -1.4795 H   0  0  0  0  0  0  0  0  0  0  0  0
    1.2439   -1.7387   -0.8382 H   0  0  0  0  0  0  0  0  0  0  0  0
    1.0148   -1.3481    0.8659 H   0  0  0  0  0  0  0  0  0  0  0  0
    3.6099   -1.6110   -0.6422 H   0  0  0  0  0  0  0  0  0  0  0  0
    3.2479   -1.9321    1.0724 H   0  0  0  0  0  0  0  0  0  0  0  0
   -0.0128    2.0305   -0.0609 H   0  0  0  0  0  0  0  0  0  0  0  0
    0.0183    0.8199    1.2292 H   0  0  0  0  0  0  0  0  0  0  0  0
    2.7096    2.1152    0.3423 H   0  0  0  0  0  0  0  0  0  0  0  0
    4.4700    0.3902    0.9964 H   0  0  0  0  0  0  0  0  0  0  0  0
   -3.7269    0.1993   -0.9386 H   0  0  0  0  0  0  0  0  0  0  0  0
   -3.1658   -1.3811   -0.3282 H   0  0  0  0  0  0  0  0  0  0  0  0
   -5.3300   -0.7431    0.7044 H   0  0  0  0  0  0  0  0  0  0  0  0
   -4.0385   -0.8054    1.9234 H   0  0  0  0  0  0  0  0  0  0  0  0
   -4.5906    0.7498    1.3229 H   0  0  0  0  0  0  0  0  0  0  0  0
  1  9  1  0  0  0  0
  1 10  1  0  0  0  0
  2  9  2  0  0  0  0
  3  4  1  0  0  0  0
  3  6  1  0  0  0  0
  3  7  1  0  0  0  0
  3 12  1  0  0  0  0
  4  5  1  0  0  0  0
  4 13  1  0  0  0  0
  4 14  1  0  0  0  0
  5  8  1  0  0  0  0
  5 15  1  0  0  0  0
  5 16  1  0  0  0  0
  6  9  1  0  0  0  0
  6 17  1  0  0  0  0
  6 18  1  0  0  0  0
  7  8  2  0  0  0  0
  7 19  1  0  0  0  0
  8 20  1  0  0  0  0
 10 11  1  0  0  0  0
 10 21  1  0  0  0  0
 10 22  1  0  0  0  0
 11 23  1  0  0  0  0
 11 24  1  0  0  0  0
 11 25  1  0  0  0  0
M  END
> <PUBCHEM_COMPOUND_CID>
10877336

> <PUBCHEM_CONFORMER_RMSD>
0.6

> <PUBCHEM_CONFORMER_DIVERSEORDER>
1
25
9
35
44
21
28
38
42
4
3
48
16
12
2
18
36
34
20
23
15
7
43
10
6
5
41
39
26
30
27
11
46
14
32
37
40
31
45
22
33
47
13
29
19
8
24
17

> <PUBCHEM_MMFF94_PARTIAL_CHARGES>
11
1 -0.43
10 0.28
19 0.15
2 -0.57
20 0.15
3 0.14
5 0.14
6 0.06
7 -0.29
8 -0.29
9 0.66

> <PUBCHEM_EFFECTIVE_ROTOR_COUNT>
4.6

> <PUBCHEM_PHARMACOPHORE_FEATURES>
2
1 2 acceptor
5 3 4 5 7 8 rings

> <PUBCHEM_HEAVY_ATOM_COUNT>
11

> <PUBCHEM_ATOM_DEF_STEREO_COUNT>
0

> <PUBCHEM_ATOM_UDEF_STEREO_COUNT>
1

> <PUBCHEM_BOND_DEF_STEREO_COUNT>
0

> <PUBCHEM_BOND_UDEF_STEREO_COUNT>
0

> <PUBCHEM_ISOTOPIC_ATOM_COUNT>
0

> <PUBCHEM_COMPONENT_COUNT>
1

> <PUBCHEM_CACTVS_TAUTO_COUNT>
1

> <PUBCHEM_CONFORMER_ID>
00A5F99800000001

> <PUBCHEM_MMFF94_ENERGY>
10.8281

> <PUBCHEM_FEATURE_SELFOVERLAP>
10.148

> <PUBCHEM_SHAPE_FINGERPRINT>
11062470 55 12247680474015409257
12251169 10 18131631196673075913
12932764 1 17917416636394990284
14252887 29 18408892819093415442
15775835 57 17346596395758195202
17844478 74 18186796963466661780
20201158 50 18040154006774928794
20279233 1 17749383767627145915
20281407 28 17312823766682245691
20645477 70 18338784616390900519
20871998 22 18056484950435969886
21293036 1 11818998486831807207
22485316 2 18040149626245753851
23402539 116 14779537989570289254
23557571 272 16515678931893324916
276578 36 16200158672444403118
42 15 18409735049664270881
581208 293 18260265278252036426
93112 12 8862937281984303449

> <PUBCHEM_SHAPE_MULTIPOLES>
214.64
7.21
1.1
0.97
5.23
0.12
-0.21
1.43
2.38
-0.81
0.06
0.5
0.01
0.18

> <PUBCHEM_SHAPE_SELFOVERLAP>
423.522

> <PUBCHEM_SHAPE_VOLUME>
129.9

> <PUBCHEM_COORDINATE_TYPE>
2
5
10

$$$$
