108765
  -OEChem-11232108553D

 18 18  0     0  0  0  0  0  0999 V2000
    1.0683    0.9207   -0.9880 S   0  0  0  0  0  0  0  0  0  0  0  0
   -2.3049   -0.6727    0.2781 O   0  0  0  0  0  0  0  0  0  0  0  0
    1.8068    0.0798    1.4024 O   0  0  0  0  0  0  0  0  0  0  0  0
   -1.0308   -0.7530   -0.1870 C   0  0  0  0  0  0  0  0  0  0  0  0
   -0.5142    0.5038   -0.4005 C   0  0  0  0  0  0  0  0  0  0  0  0
   -1.5366    1.4150   -0.0436 C   0  0  0  0  0  0  0  0  0  0  0  0
   -0.4962   -2.1133   -0.3581 C   0  0  0  0  0  0  0  0  0  0  0  0
   -2.6051    0.6500    0.3627 C   0  0  0  0  0  0  0  0  0  0  0  0
    2.1367    0.2023    0.2287 C   0  0  0  0  0  0  0  0  0  0  0  0
    3.4760   -0.2326   -0.2947 C   0  0  0  0  0  0  0  0  0  0  0  0
   -1.5076    2.4952   -0.0748 H   0  0  0  0  0  0  0  0  0  0  0  0
    0.0962   -2.1908   -1.2750 H   0  0  0  0  0  0  0  0  0  0  0  0
    0.1431   -2.3815    0.4885 H   0  0  0  0  0  0  0  0  0  0  0  0
   -1.3021   -2.8516   -0.4211 H   0  0  0  0  0  0  0  0  0  0  0  0
   -3.5971    0.8819    0.7218 H   0  0  0  0  0  0  0  0  0  0  0  0
    4.0586   -0.6708    0.5212 H   0  0  0  0  0  0  0  0  0  0  0  0
    4.0241    0.6273   -0.6891 H   0  0  0  0  0  0  0  0  0  0  0  0
    3.3485   -0.9899   -1.0730 H   0  0  0  0  0  0  0  0  0  0  0  0
  1  5  1  0  0  0  0
  1  9  1  0  0  0  0
  2  4  1  0  0  0  0
  2  8  1  0  0  0  0
  3  9  2  0  0  0  0
  4  5  2  0  0  0  0
  4  7  1  0  0  0  0
  5  6  1  0  0  0  0
  6  8  2  0  0  0  0
  6 11  1  0  0  0  0
  7 12  1  0  0  0  0
  7 13  1  0  0  0  0
  7 14  1  0  0  0  0
  8 15  1  0  0  0  0
  9 10  1  0  0  0  0
 10 16  1  0  0  0  0
 10 17  1  0  0  0  0
 10 18  1  0  0  0  0
M  END
> <PUBCHEM_COMPOUND_CID>
108765

> <PUBCHEM_CONFORMER_RMSD>
0.4

> <PUBCHEM_CONFORMER_DIVERSEORDER>
1
16
15
26
10
7
23
4
6
22
3
25
27
17
11
19
2
18
20
12
9
14
5
24
21
8
13

> <PUBCHEM_MMFF94_PARTIAL_CHARGES>
12
1 -0.2
10 0.06
11 0.15
15 0.15
2 -0.28
3 -0.57
4 -0.04
5 0.05
6 -0.15
7 0.18
8 -0.01
9 0.65

> <PUBCHEM_EFFECTIVE_ROTOR_COUNT>
2

> <PUBCHEM_PHARMACOPHORE_FEATURES>
2
1 2 acceptor
5 2 4 5 6 8 rings

> <PUBCHEM_HEAVY_ATOM_COUNT>
10

> <PUBCHEM_ATOM_DEF_STEREO_COUNT>
0

> <PUBCHEM_ATOM_UDEF_STEREO_COUNT>
0

> <PUBCHEM_BOND_DEF_STEREO_COUNT>
0

> <PUBCHEM_BOND_UDEF_STEREO_COUNT>
0

> <PUBCHEM_ISOTOPIC_ATOM_COUNT>
0

> <PUBCHEM_COMPONENT_COUNT>
1

> <PUBCHEM_CACTVS_TAUTO_COUNT>
1

> <PUBCHEM_CONFORMER_ID>
0001A8DD00000001

> <PUBCHEM_MMFF94_ENERGY>
7.7516

> <PUBCHEM_FEATURE_SELFOVERLAP>
10.148

> <PUBCHEM_SHAPE_FINGERPRINT>
12897270 3 8070028874108074088
13024252 1 14779262003746301845
14993402 34 18259702302470659453
15076042 46 18409739485954154197
15310529 11 16298096575656395484
15775835 57 18342742879514350474
16945 1 17967247589892070293
18185500 45 17971469851854985740
20645464 45 17988628718981256824
20871998 184 18128262370350122975
21040471 1 18341339924341970869
23235685 24 18411418371458682004
23552423 10 17683251626276797293
2748010 2 17831027827638688277
29004967 10 15357696392243357028
369184 2 17131828785204434549
5084963 1 18131356305891844557

> <PUBCHEM_SHAPE_MULTIPOLES>
197.91
4.23
1.56
0.93
2.32
0.68
-0.1
-0.3
-0.53
-0.67
0.27
0.37
-0.09
-0.14

> <PUBCHEM_SHAPE_SELFOVERLAP>
389.83

> <PUBCHEM_SHAPE_VOLUME>
120.4

> <PUBCHEM_COORDINATE_TYPE>
2
5
10

$$$$
