10887828
  -OEChem-11232108553D

 11 10  0     0  0  0  0  0  0999 V2000
   -1.1923    0.7528   -0.0195 S   0  0  0  0  0  0  0  0  0  0  0  0
    2.3485   -0.0584   -0.4030 O   0  0  0  0  0  0  0  0  0  0  0  0
    0.0725   -0.5178    0.2171 C   0  0  0  0  0  0  0  0  0  0  0  0
   -2.6371   -0.3265   -0.1528 C   0  0  0  0  0  0  0  0  0  0  0  0
    1.4084    0.1500    0.3582 C   0  0  0  0  0  0  0  0  0  0  0  0
    0.0957   -1.1921   -0.6437 H   0  0  0  0  0  0  0  0  0  0  0  0
   -0.1236   -1.0913    1.1271 H   0  0  0  0  0  0  0  0  0  0  0  0
   -2.5305   -1.0020   -1.0056 H   0  0  0  0  0  0  0  0  0  0  0  0
   -3.5309    0.2847   -0.3033 H   0  0  0  0  0  0  0  0  0  0  0  0
   -2.7639   -0.9077    0.7642 H   0  0  0  0  0  0  0  0  0  0  0  0
    1.5232    0.8325    1.2185 H   0  0  0  0  0  0  0  0  0  0  0  0
  1  3  1  0  0  0  0
  1  4  1  0  0  0  0
  2  5  2  0  0  0  0
  3  5  1  0  0  0  0
  3  6  1  0  0  0  0
  3  7  1  0  0  0  0
  4  8  1  0  0  0  0
  4  9  1  0  0  0  0
  4 10  1  0  0  0  0
  5 11  1  0  0  0  0
M  END
> <PUBCHEM_COMPOUND_CID>
10887828

> <PUBCHEM_CONFORMER_RMSD>
0.4

> <PUBCHEM_CONFORMER_DIVERSEORDER>
3
8
7
1
6
4
5
9
2

> <PUBCHEM_MMFF94_PARTIAL_CHARGES>
6
1 -0.46
11 0.06
2 -0.57
3 0.29
4 0.23
5 0.45

> <PUBCHEM_EFFECTIVE_ROTOR_COUNT>
2

> <PUBCHEM_PHARMACOPHORE_FEATURES>
2
1 2 acceptor
1 4 hydrophobe

> <PUBCHEM_HEAVY_ATOM_COUNT>
5

> <PUBCHEM_ATOM_DEF_STEREO_COUNT>
0

> <PUBCHEM_ATOM_UDEF_STEREO_COUNT>
0

> <PUBCHEM_BOND_DEF_STEREO_COUNT>
0

> <PUBCHEM_BOND_UDEF_STEREO_COUNT>
0

> <PUBCHEM_ISOTOPIC_ATOM_COUNT>
0

> <PUBCHEM_COMPONENT_COUNT>
1

> <PUBCHEM_CACTVS_TAUTO_COUNT>
2

> <PUBCHEM_CONFORMER_ID>
00A6229400000003

> <PUBCHEM_MMFF94_ENERGY>
5.2868

> <PUBCHEM_FEATURE_SELFOVERLAP>
10.148

> <PUBCHEM_SHAPE_FINGERPRINT>
139733 1 8574716818864998089
14390081 3 14129059226949970263
16714656 1 18341894104014430143
20096714 4 17894917329960915812
29004967 10 15841551872818886354
5460574 1 9295289447476254641

> <PUBCHEM_SHAPE_MULTIPOLES>
100.88
3.56
0.83
0.68
0.29
0.09
-0.02
-0.27
0.44
0.24
-0.02
-0.04
0.01
0

> <PUBCHEM_SHAPE_SELFOVERLAP>
160.339

> <PUBCHEM_SHAPE_VOLUME>
72.1

> <PUBCHEM_COORDINATE_TYPE>
2
5
10

$$$$
