108902
  -OEChem-11232108463D

 53 52  0     0  0  0  0  0  0999 V2000
    3.6917    0.1105    0.3910 O   0  0  0  0  0  0  0  0  0  0  0  0
    4.0347   -1.2303   -1.4578 O   0  0  0  0  0  0  0  0  0  0  0  0
   -0.3768   -1.7740    0.8536 C   0  0  0  0  0  0  0  0  0  0  0  0
   -1.4724   -1.7403   -0.2147 C   0  0  0  0  0  0  0  0  0  0  0  0
    1.0041   -1.9777    0.2281 C   0  0  0  0  0  0  0  0  0  0  0  0
   -2.8559   -1.5687    0.4164 C   0  0  0  0  0  0  0  0  0  0  0  0
    2.0946   -2.0452    1.2973 C   0  0  0  0  0  0  0  0  0  0  0  0
   -3.9951   -1.5594   -0.6068 C   0  0  0  0  0  0  0  0  0  0  0  0
    1.6018    2.0936    0.0974 C   0  0  0  0  0  0  0  0  0  0  0  0
    0.2666    2.5337   -0.5069 C   0  0  0  0  0  0  0  0  0  0  0  0
    3.4741   -2.2147    0.6725 C   0  0  0  0  0  0  0  0  0  0  0  0
    2.6175    1.7550   -0.9927 C   0  0  0  0  0  0  0  0  0  0  0  0
   -0.7831    2.9082    0.5434 C   0  0  0  0  0  0  0  0  0  0  0  0
   -5.3796   -1.4128    0.0257 C   0  0  0  0  0  0  0  0  0  0  0  0
    3.9363    1.2760   -0.4027 C   0  0  0  0  0  0  0  0  0  0  0  0
   -2.0923    3.4180   -0.0604 C   0  0  0  0  0  0  0  0  0  0  0  0
    3.7749   -1.0788   -0.2710 C   0  0  0  0  0  0  0  0  0  0  0  0
   -6.4678   -1.3366   -1.0344 C   0  0  0  0  0  0  0  0  0  0  0  0
   -3.0731    3.8433    1.0221 C   0  0  0  0  0  0  0  0  0  0  0  0
   -0.5808   -2.5854    1.5628 H   0  0  0  0  0  0  0  0  0  0  0  0
   -0.3890   -0.8359    1.4220 H   0  0  0  0  0  0  0  0  0  0  0  0
   -1.2832   -0.9161   -0.9129 H   0  0  0  0  0  0  0  0  0  0  0  0
   -1.4494   -2.6699   -0.7961 H   0  0  0  0  0  0  0  0  0  0  0  0
    1.0093   -2.9055   -0.3572 H   0  0  0  0  0  0  0  0  0  0  0  0
    1.1913   -1.1560   -0.4716 H   0  0  0  0  0  0  0  0  0  0  0  0
   -3.0291   -2.3806    1.1337 H   0  0  0  0  0  0  0  0  0  0  0  0
   -2.8791   -0.6318    0.9871 H   0  0  0  0  0  0  0  0  0  0  0  0
    1.9020   -2.8918    1.9670 H   0  0  0  0  0  0  0  0  0  0  0  0
    2.0633   -1.1402    1.9158 H   0  0  0  0  0  0  0  0  0  0  0  0
   -3.8296   -0.7356   -1.3125 H   0  0  0  0  0  0  0  0  0  0  0  0
   -3.9621   -2.4873   -1.1911 H   0  0  0  0  0  0  0  0  0  0  0  0
    1.4278    1.2265    0.7444 H   0  0  0  0  0  0  0  0  0  0  0  0
    1.9984    2.8947    0.7329 H   0  0  0  0  0  0  0  0  0  0  0  0
    0.4370    3.3955   -1.1642 H   0  0  0  0  0  0  0  0  0  0  0  0
   -0.1310    1.7283   -1.1370 H   0  0  0  0  0  0  0  0  0  0  0  0
    4.2533   -2.2483    1.4411 H   0  0  0  0  0  0  0  0  0  0  0  0
    3.5251   -3.1551    0.1120 H   0  0  0  0  0  0  0  0  0  0  0  0
    2.8013    2.6372   -1.6167 H   0  0  0  0  0  0  0  0  0  0  0  0
    2.1990    0.9762   -1.6411 H   0  0  0  0  0  0  0  0  0  0  0  0
   -0.9890    2.0338    1.1733 H   0  0  0  0  0  0  0  0  0  0  0  0
   -0.3662    3.6808    1.2014 H   0  0  0  0  0  0  0  0  0  0  0  0
   -5.4125   -0.5056    0.6401 H   0  0  0  0  0  0  0  0  0  0  0  0
   -5.5760   -2.2625    0.6895 H   0  0  0  0  0  0  0  0  0  0  0  0
    4.6780    1.0852   -1.1867 H   0  0  0  0  0  0  0  0  0  0  0  0
    4.3593    2.0394    0.2591 H   0  0  0  0  0  0  0  0  0  0  0  0
   -2.5465    2.6327   -0.6757 H   0  0  0  0  0  0  0  0  0  0  0  0
   -1.8911    4.2714   -0.7180 H   0  0  0  0  0  0  0  0  0  0  0  0
   -6.3159   -0.4746   -1.6919 H   0  0  0  0  0  0  0  0  0  0  0  0
   -7.4499   -1.2344   -0.5621 H   0  0  0  0  0  0  0  0  0  0  0  0
   -6.4793   -2.2414   -1.6504 H   0  0  0  0  0  0  0  0  0  0  0  0
   -3.3169    3.0041    1.6813 H   0  0  0  0  0  0  0  0  0  0  0  0
   -4.0033    4.2019    0.5703 H   0  0  0  0  0  0  0  0  0  0  0  0
   -2.6582    4.6516    1.6326 H   0  0  0  0  0  0  0  0  0  0  0  0
  1 15  1  0  0  0  0
  1 17  1  0  0  0  0
  2 17  2  0  0  0  0
  3  4  1  0  0  0  0
  3  5  1  0  0  0  0
  3 20  1  0  0  0  0
  3 21  1  0  0  0  0
  4  6  1  0  0  0  0
  4 22  1  0  0  0  0
  4 23  1  0  0  0  0
  5  7  1  0  0  0  0
  5 24  1  0  0  0  0
  5 25  1  0  0  0  0
  6  8  1  0  0  0  0
  6 26  1  0  0  0  0
  6 27  1  0  0  0  0
  7 11  1  0  0  0  0
  7 28  1  0  0  0  0
  7 29  1  0  0  0  0
  8 14  1  0  0  0  0
  8 30  1  0  0  0  0
  8 31  1  0  0  0  0
  9 10  1  0  0  0  0
  9 12  1  0  0  0  0
  9 32  1  0  0  0  0
  9 33  1  0  0  0  0
 10 13  1  0  0  0  0
 10 34  1  0  0  0  0
 10 35  1  0  0  0  0
 11 17  1  0  0  0  0
 11 36  1  0  0  0  0
 11 37  1  0  0  0  0
 12 15  1  0  0  0  0
 12 38  1  0  0  0  0
 12 39  1  0  0  0  0
 13 16  1  0  0  0  0
 13 40  1  0  0  0  0
 13 41  1  0  0  0  0
 14 18  1  0  0  0  0
 14 42  1  0  0  0  0
 14 43  1  0  0  0  0
 15 44  1  0  0  0  0
 15 45  1  0  0  0  0
 16 19  1  0  0  0  0
 16 46  1  0  0  0  0
 16 47  1  0  0  0  0
 18 48  1  0  0  0  0
 18 49  1  0  0  0  0
 18 50  1  0  0  0  0
 19 51  1  0  0  0  0
 19 52  1  0  0  0  0
 19 53  1  0  0  0  0
M  END
> <PUBCHEM_COMPOUND_CID>
108902

> <PUBCHEM_CONFORMER_RMSD>
1.4

> <PUBCHEM_CONFORMER_DIVERSEORDER>
2
8
48
1
35
27
18
59
32
23
50
42
31
13
19
16
56
15
38
39
58
47
20
29
46
51
4
53
30
68
10
36
44
63
61
60
9
62
7
43
37
34
5
21
14
22
24
17
66
55
3
28
49
45
41
12
64
6
67
26
52
25
33
57
40
11
54
65

> <PUBCHEM_MMFF94_PARTIAL_CHARGES>
5
1 -0.43
11 0.06
15 0.28
17 0.66
2 -0.57

> <PUBCHEM_EFFECTIVE_ROTOR_COUNT>
15

> <PUBCHEM_PHARMACOPHORE_FEATURES>
4
1 18 hydrophobe
1 19 hydrophobe
1 2 acceptor
5 9 10 12 13 16 hydrophobe

> <PUBCHEM_HEAVY_ATOM_COUNT>
19

> <PUBCHEM_ATOM_DEF_STEREO_COUNT>
0

> <PUBCHEM_ATOM_UDEF_STEREO_COUNT>
0

> <PUBCHEM_BOND_DEF_STEREO_COUNT>
0

> <PUBCHEM_BOND_UDEF_STEREO_COUNT>
0

> <PUBCHEM_ISOTOPIC_ATOM_COUNT>
0

> <PUBCHEM_COMPONENT_COUNT>
1

> <PUBCHEM_CACTVS_TAUTO_COUNT>
1

> <PUBCHEM_CONFORMER_ID>
0001A96600000002

> <PUBCHEM_MMFF94_ENERGY>
-1.1465

> <PUBCHEM_FEATURE_SELFOVERLAP>
20.297

> <PUBCHEM_SHAPE_FINGERPRINT>
12788726 201 18338806713981898256
14251757 17 17968919964437148389
14464042 87 18413672422389033921
14681490 219 18339074999540947205
14931854 50 18334582364521816366
15210252 30 17823419486147263148
17093844 170 18192708067196265776
20621476 13 17905609152701734937
21344244 78 18044906074619268058
22289505 5 18334570282541831566
3014063 31 18410008866556257885
338550 245 18262248720241464533
3524813 1 17895743127422934150
6438718 38 18057312890711667415
6443956 14 18264207100467940317
7164475 11 18339357440416223218

> <PUBCHEM_SHAPE_MULTIPOLES>
379.27
10.89
4.98
1.1
12.1
5.33
0.03
-6.29
3.15
2.49
-1.12
-0.17
-0.1
-1.82

> <PUBCHEM_SHAPE_SELFOVERLAP>
693.3

> <PUBCHEM_SHAPE_VOLUME>
240.9

> <PUBCHEM_COORDINATE_TYPE>
2
5
10

$$$$
