10909860
  -OEChem-11232109493D

 27 26  0     1  0  0  0  0  0999 V2000
   -0.6889    2.5943   -0.6697 O   0  0  0  0  0  0  0  0  0  0  0  0
    1.3550   -0.2246   -0.3060 O   0  0  0  0  0  0  0  0  0  0  0  0
    1.1896    1.6093    1.0824 O   0  0  0  0  0  0  0  0  0  0  0  0
   -1.6419   -0.9740    0.2537 C   0  0  0  0  0  0  0  0  0  0  0  0
   -1.7151    0.5592    0.1035 C   0  0  0  0  0  0  0  0  0  0  0  0
   -0.5101    1.1873   -0.6032 C   0  0  2  0  0  0  0  0  0  0  0  0
   -1.5266   -1.6840   -1.0957 C   0  0  0  0  0  0  0  0  0  0  0  0
   -2.8788   -1.4808    1.0002 C   0  0  0  0  0  0  0  0  0  0  0  0
    0.7696    0.9157    0.1651 C   0  0  0  0  0  0  0  0  0  0  0  0
    2.5643   -0.6149    0.3524 C   0  0  0  0  0  0  0  0  0  0  0  0
    3.0830   -1.8875   -0.2828 C   0  0  0  0  0  0  0  0  0  0  0  0
   -0.7697   -1.2402    0.8620 H   0  0  0  0  0  0  0  0  0  0  0  0
   -1.8211    1.0133    1.0984 H   0  0  0  0  0  0  0  0  0  0  0  0
   -2.6269    0.8392   -0.4410 H   0  0  0  0  0  0  0  0  0  0  0  0
   -0.4136    0.8319   -1.6338 H   0  0  0  0  0  0  0  0  0  0  0  0
   -1.5471   -2.7713   -0.9623 H   0  0  0  0  0  0  0  0  0  0  0  0
   -2.3567   -1.4121   -1.7567 H   0  0  0  0  0  0  0  0  0  0  0  0
   -0.5924   -1.4429   -1.6092 H   0  0  0  0  0  0  0  0  0  0  0  0
   -3.7968   -1.2617    0.4443 H   0  0  0  0  0  0  0  0  0  0  0  0
   -2.8253   -2.5641    1.1524 H   0  0  0  0  0  0  0  0  0  0  0  0
   -2.9582   -1.0099    1.9858 H   0  0  0  0  0  0  0  0  0  0  0  0
    0.0383    2.9578   -1.2035 H   0  0  0  0  0  0  0  0  0  0  0  0
    3.3098    0.1813    0.2490 H   0  0  0  0  0  0  0  0  0  0  0  0
    2.3612   -0.7880    1.4151 H   0  0  0  0  0  0  0  0  0  0  0  0
    4.0082   -2.2162    0.1986 H   0  0  0  0  0  0  0  0  0  0  0  0
    2.3393   -2.6875   -0.2044 H   0  0  0  0  0  0  0  0  0  0  0  0
    3.2740   -1.7351   -1.3502 H   0  0  0  0  0  0  0  0  0  0  0  0
  1  6  1  0  0  0  0
  1 22  1  0  0  0  0
  2  9  1  0  0  0  0
  2 10  1  0  0  0  0
  3  9  2  0  0  0  0
  4  5  1  0  0  0  0
  4  7  1  0  0  0  0
  4  8  1  0  0  0  0
  4 12  1  0  0  0  0
  5  6  1  0  0  0  0
  5 13  1  0  0  0  0
  5 14  1  0  0  0  0
  6  9  1  0  0  0  0
  6 15  1  0  0  0  0
  7 16  1  0  0  0  0
  7 17  1  0  0  0  0
  7 18  1  0  0  0  0
  8 19  1  0  0  0  0
  8 20  1  0  0  0  0
  8 21  1  0  0  0  0
 10 11  1  0  0  0  0
 10 23  1  0  0  0  0
 10 24  1  0  0  0  0
 11 25  1  0  0  0  0
 11 26  1  0  0  0  0
 11 27  1  0  0  0  0
M  END
> <PUBCHEM_COMPOUND_CID>
10909860

> <PUBCHEM_CONFORMER_RMSD>
0.6

> <PUBCHEM_CONFORMER_DIVERSEORDER>
1
19
33
29
28
5
7
20
11
13
10
16
42
24
22
32
15
23
14
34
37
38
36
40
18
4
27
9
35
8
6
41
12
3
26
25
21
30
17
31
39
2

> <PUBCHEM_MMFF94_PARTIAL_CHARGES>
7
1 -0.68
10 0.28
2 -0.43
22 0.4
3 -0.57
6 0.34
9 0.66

> <PUBCHEM_EFFECTIVE_ROTOR_COUNT>
5

> <PUBCHEM_PHARMACOPHORE_FEATURES>
4
1 1 acceptor
1 1 donor
1 3 acceptor
3 4 7 8 hydrophobe

> <PUBCHEM_HEAVY_ATOM_COUNT>
11

> <PUBCHEM_ATOM_DEF_STEREO_COUNT>
1

> <PUBCHEM_ATOM_UDEF_STEREO_COUNT>
0

> <PUBCHEM_BOND_DEF_STEREO_COUNT>
0

> <PUBCHEM_BOND_UDEF_STEREO_COUNT>
0

> <PUBCHEM_ISOTOPIC_ATOM_COUNT>
0

> <PUBCHEM_COMPONENT_COUNT>
1

> <PUBCHEM_CACTVS_TAUTO_COUNT>
1

> <PUBCHEM_CONFORMER_ID>
00A678A400000001

> <PUBCHEM_MMFF94_ENERGY>
7.7109

> <PUBCHEM_FEATURE_SELFOVERLAP>
20.302

> <PUBCHEM_SHAPE_FINGERPRINT>
12423570 1 8781223691169531125
12716758 59 18049431548778040712
14128692 85 18261686899916481646
16945 1 18044097847561949837
20645476 183 17392213823403929446
20645477 70 17539686224639386691
20711985 344 18115569466548400145
20871998 184 18341615849978504471
20871998 22 18335989760669371331
21061003 4 17703507710310574506
23211744 25 8501801477061256393
23552423 10 18113621196352490916
241688 4 18335136505407700761
2748010 2 18336816584944726613
81228 2 18261939765826493709

> <PUBCHEM_SHAPE_MULTIPOLES>
208.77
4.12
2.47
0.99
1.7
0.73
0.01
-3.21
0.7
-0.11
-0.34
-0.33
-0.1
0.52

> <PUBCHEM_SHAPE_SELFOVERLAP>
386.561

> <PUBCHEM_SHAPE_VOLUME>
132.3

> <PUBCHEM_COORDINATE_TYPE>
2
5
10

$$$$
