109095
  -OEChem-11232109123D

 44 43  0     0  0  0  0  0  0999 V2000
   -2.9886    0.2536   -0.5096 O   0  0  0  0  0  0  0  0  0  0  0  0
   -3.1307    1.4311    1.4713 O   0  0  0  0  0  0  0  0  0  0  0  0
    1.5360    1.2924   -0.6512 C   0  0  0  0  0  0  0  0  0  0  0  0
    0.1911    1.6608   -0.0197 C   0  0  0  0  0  0  0  0  0  0  0  0
    2.6016    0.8946    0.3746 C   0  0  0  0  0  0  0  0  0  0  0  0
   -0.8307    2.0615   -1.0891 C   0  0  0  0  0  0  0  0  0  0  0  0
    3.9537    0.5508   -0.2545 C   0  0  0  0  0  0  0  0  0  0  0  0
   -2.1750    2.4642   -0.4894 C   0  0  0  0  0  0  0  0  0  0  0  0
    4.9563    0.0920    0.8052 C   0  0  0  0  0  0  0  0  0  0  0  0
   -2.4940   -1.7543    0.7137 C   0  0  0  0  0  0  0  0  0  0  0  0
   -1.5295   -2.2578   -0.3579 C   0  0  0  0  0  0  0  0  0  0  0  0
   -3.5905   -0.8827    0.1184 C   0  0  0  0  0  0  0  0  0  0  0  0
   -2.8189    1.3447    0.2906 C   0  0  0  0  0  0  0  0  0  0  0  0
   -0.4567   -3.1661    0.2420 C   0  0  0  0  0  0  0  0  0  0  0  0
    6.2904   -0.2880    0.1824 C   0  0  0  0  0  0  0  0  0  0  0  0
    0.4855   -3.6966   -0.8269 C   0  0  0  0  0  0  0  0  0  0  0  0
    1.3900    0.4630   -1.3545 H   0  0  0  0  0  0  0  0  0  0  0  0
    1.9053    2.1433   -1.2368 H   0  0  0  0  0  0  0  0  0  0  0  0
   -0.1768    0.8052    0.5579 H   0  0  0  0  0  0  0  0  0  0  0  0
    0.3319    2.4903    0.6836 H   0  0  0  0  0  0  0  0  0  0  0  0
    2.2370    0.0314    0.9457 H   0  0  0  0  0  0  0  0  0  0  0  0
    2.7355    1.7144    1.0912 H   0  0  0  0  0  0  0  0  0  0  0  0
   -0.4392    2.9075   -1.6669 H   0  0  0  0  0  0  0  0  0  0  0  0
   -0.9647    1.2328   -1.7948 H   0  0  0  0  0  0  0  0  0  0  0  0
    4.3464    1.4270   -0.7840 H   0  0  0  0  0  0  0  0  0  0  0  0
    3.8174   -0.2432   -0.9988 H   0  0  0  0  0  0  0  0  0  0  0  0
   -2.8705    2.7770   -1.2761 H   0  0  0  0  0  0  0  0  0  0  0  0
   -2.0436    3.3197    0.1833 H   0  0  0  0  0  0  0  0  0  0  0  0
    5.1145    0.8912    1.5385 H   0  0  0  0  0  0  0  0  0  0  0  0
    4.5561   -0.7723    1.3481 H   0  0  0  0  0  0  0  0  0  0  0  0
   -2.9547   -2.6058    1.2276 H   0  0  0  0  0  0  0  0  0  0  0  0
   -1.9299   -1.1848    1.4619 H   0  0  0  0  0  0  0  0  0  0  0  0
   -2.0883   -2.8090   -1.1241 H   0  0  0  0  0  0  0  0  0  0  0  0
   -1.0444   -1.4121   -0.8595 H   0  0  0  0  0  0  0  0  0  0  0  0
   -4.1406   -1.4311   -0.6539 H   0  0  0  0  0  0  0  0  0  0  0  0
   -4.3204   -0.5855    0.8803 H   0  0  0  0  0  0  0  0  0  0  0  0
   -0.9282   -4.0120    0.7557 H   0  0  0  0  0  0  0  0  0  0  0  0
    0.1226   -2.6130    0.9906 H   0  0  0  0  0  0  0  0  0  0  0  0
    6.7339    0.5632   -0.3441 H   0  0  0  0  0  0  0  0  0  0  0  0
    6.1705   -1.1094   -0.5312 H   0  0  0  0  0  0  0  0  0  0  0  0
    6.9922   -0.6113    0.9576 H   0  0  0  0  0  0  0  0  0  0  0  0
   -0.0589   -4.2815   -1.5752 H   0  0  0  0  0  0  0  0  0  0  0  0
    0.9991   -2.8760   -1.3384 H   0  0  0  0  0  0  0  0  0  0  0  0
    1.2445   -4.3435   -0.3760 H   0  0  0  0  0  0  0  0  0  0  0  0
  1 12  1  0  0  0  0
  1 13  1  0  0  0  0
  2 13  2  0  0  0  0
  3  4  1  0  0  0  0
  3  5  1  0  0  0  0
  3 17  1  0  0  0  0
  3 18  1  0  0  0  0
  4  6  1  0  0  0  0
  4 19  1  0  0  0  0
  4 20  1  0  0  0  0
  5  7  1  0  0  0  0
  5 21  1  0  0  0  0
  5 22  1  0  0  0  0
  6  8  1  0  0  0  0
  6 23  1  0  0  0  0
  6 24  1  0  0  0  0
  7  9  1  0  0  0  0
  7 25  1  0  0  0  0
  7 26  1  0  0  0  0
  8 13  1  0  0  0  0
  8 27  1  0  0  0  0
  8 28  1  0  0  0  0
  9 15  1  0  0  0  0
  9 29  1  0  0  0  0
  9 30  1  0  0  0  0
 10 11  1  0  0  0  0
 10 12  1  0  0  0  0
 10 31  1  0  0  0  0
 10 32  1  0  0  0  0
 11 14  1  0  0  0  0
 11 33  1  0  0  0  0
 11 34  1  0  0  0  0
 12 35  1  0  0  0  0
 12 36  1  0  0  0  0
 14 16  1  0  0  0  0
 14 37  1  0  0  0  0
 14 38  1  0  0  0  0
 15 39  1  0  0  0  0
 15 40  1  0  0  0  0
 15 41  1  0  0  0  0
 16 42  1  0  0  0  0
 16 43  1  0  0  0  0
 16 44  1  0  0  0  0
M  END
> <PUBCHEM_COMPOUND_CID>
109095

> <PUBCHEM_CONFORMER_RMSD>
1.2

> <PUBCHEM_CONFORMER_DIVERSEORDER>
3
39
1
258
176
464
58
194
223
4
256
100
500
70
495
30
36
547
113
79
72
342
63
235
457
10
117
435
389
247
27
115
127
237
539
191
37
529
9
15
470
81
61
26
64
180
18
17
562
418
555
227
209
134
20
181
508
270
2
367
14
48
415
77
542
5
417
197
186
541
172
60
38
534
300
185
381
155
488
374
136
423
110
44
521
55
483
327
89
516
316
101
350
305
262
57
422
214
236

> <PUBCHEM_MMFF94_PARTIAL_CHARGES>
5
1 -0.43
12 0.28
13 0.66
2 -0.57
8 0.06

> <PUBCHEM_EFFECTIVE_ROTOR_COUNT>
12

> <PUBCHEM_PHARMACOPHORE_FEATURES>
3
1 15 hydrophobe
1 16 hydrophobe
1 2 acceptor

> <PUBCHEM_HEAVY_ATOM_COUNT>
16

> <PUBCHEM_ATOM_DEF_STEREO_COUNT>
0

> <PUBCHEM_ATOM_UDEF_STEREO_COUNT>
0

> <PUBCHEM_BOND_DEF_STEREO_COUNT>
0

> <PUBCHEM_BOND_UDEF_STEREO_COUNT>
0

> <PUBCHEM_ISOTOPIC_ATOM_COUNT>
0

> <PUBCHEM_COMPONENT_COUNT>
1

> <PUBCHEM_CACTVS_TAUTO_COUNT>
1

> <PUBCHEM_CONFORMER_ID>
0001AA2700000003

> <PUBCHEM_MMFF94_ENERGY>
-0.7248

> <PUBCHEM_FEATURE_SELFOVERLAP>
15.223

> <PUBCHEM_SHAPE_FINGERPRINT>
10616163 171 18335138678877462634
11014199 57 17689994957466984010
12633257 1 17987814036362208648
12757275 245 18335137605109505124
1420 336 17904202877440475203
14251751 93 18261104145789724192
14251757 5 18265630947268544190
14647877 51 18053385401651781374
15006816 218 18267304227165601502
167882 2 17758946031486765445
17977361 122 18336542815107852311
20621476 51 17984414411166476846
21634736 98 17898013675138215684
23402539 116 18270955864580234239
23728640 28 18339924921475589827
57583515 115 18409728482527614246
602551 16 18411696604547415520

> <PUBCHEM_SHAPE_MULTIPOLES>
317.53
9.51
3.97
0.99
17.54
3.68
-0.07
-0.77
-2.32
-2.77
0.91
-0.27
-0.13
0.05

> <PUBCHEM_SHAPE_SELFOVERLAP>
579.023

> <PUBCHEM_SHAPE_VOLUME>
202.2

> <PUBCHEM_COORDINATE_TYPE>
2
5
10

$$$$
