109140
  -OEChem-11232109423D

 44 45  0     1  0  0  0  0  0999 V2000
    0.1535   -0.3267   -0.0206 O   0  0  0  0  0  0  0  0  0  0  0  0
   -1.3728    0.1978   -1.6734 O   0  0  0  0  0  0  0  0  0  0  0  0
   -5.3251   -0.0850   -0.3639 O   0  0  0  0  0  0  0  0  0  0  0  0
   -3.2147    0.8278    0.0781 N   0  0  0  0  0  0  0  0  0  0  0  0
    2.5635   -0.5634   -0.1990 C   0  0  1  0  0  0  0  0  0  0  0  0
    1.2764   -0.0252   -0.8475 C   0  0  2  0  0  0  0  0  0  0  0  0
    2.8855    0.1870    1.1022 C   0  0  0  0  0  0  0  0  0  0  0  0
    1.6802    2.2433    0.2351 C   0  0  1  0  0  0  0  0  0  0  0  0
    1.3548    1.4891   -1.0641 C   0  0  0  0  0  0  0  0  0  0  0  0
    2.9616    1.6961    0.8767 C   0  0  0  0  0  0  0  0  0  0  0  0
    2.4766   -2.0674    0.0674 C   0  0  0  0  0  0  0  0  0  0  0  0
    1.8098    3.7422   -0.0314 C   0  0  0  0  0  0  0  0  0  0  0  0
    2.1222   -2.8169   -1.2138 C   0  0  0  0  0  0  0  0  0  0  0  0
    3.7898   -2.5837    0.6486 C   0  0  0  0  0  0  0  0  0  0  0  0
   -1.9713    0.3911    0.6474 C   0  0  2  0  0  0  0  0  0  0  0  0
   -1.0578    0.0862   -0.4964 C   0  0  0  0  0  0  0  0  0  0  0  0
   -2.3514   -0.8443    1.4413 C   0  0  0  0  0  0  0  0  0  0  0  0
   -3.5879   -1.3874    0.7255 C   0  0  0  0  0  0  0  0  0  0  0  0
   -4.1929   -0.1607    0.0879 C   0  0  0  0  0  0  0  0  0  0  0  0
    3.3888   -0.3770   -0.9017 H   0  0  0  0  0  0  0  0  0  0  0  0
    1.1294   -0.4906   -1.8291 H   0  0  0  0  0  0  0  0  0  0  0  0
    3.8528   -0.1220    1.5109 H   0  0  0  0  0  0  0  0  0  0  0  0
    2.1286   -0.0299    1.8664 H   0  0  0  0  0  0  0  0  0  0  0  0
    0.8531    2.1027    0.9425 H   0  0  0  0  0  0  0  0  0  0  0  0
    0.4315    1.8960   -1.4889 H   0  0  0  0  0  0  0  0  0  0  0  0
    2.1422    1.6929   -1.8025 H   0  0  0  0  0  0  0  0  0  0  0  0
    3.1402    2.1957    1.8364 H   0  0  0  0  0  0  0  0  0  0  0  0
    3.8248    1.9218    0.2372 H   0  0  0  0  0  0  0  0  0  0  0  0
    1.6889   -2.2769    0.8029 H   0  0  0  0  0  0  0  0  0  0  0  0
    2.0146    4.2852    0.8973 H   0  0  0  0  0  0  0  0  0  0  0  0
    2.6231    3.9538   -0.7337 H   0  0  0  0  0  0  0  0  0  0  0  0
    0.8829    4.1425   -0.4556 H   0  0  0  0  0  0  0  0  0  0  0  0
    2.7875   -2.5419   -2.0393 H   0  0  0  0  0  0  0  0  0  0  0  0
    2.2116   -3.8990   -1.0646 H   0  0  0  0  0  0  0  0  0  0  0  0
    1.0880   -2.6368   -1.5223 H   0  0  0  0  0  0  0  0  0  0  0  0
    4.6491   -2.2739    0.0441 H   0  0  0  0  0  0  0  0  0  0  0  0
    3.7907   -3.6791    0.6855 H   0  0  0  0  0  0  0  0  0  0  0  0
    3.9453   -2.2454    1.6773 H   0  0  0  0  0  0  0  0  0  0  0  0
   -1.5521    1.1950    1.2585 H   0  0  0  0  0  0  0  0  0  0  0  0
   -2.6326   -0.5503    2.4606 H   0  0  0  0  0  0  0  0  0  0  0  0
   -1.5603   -1.5962    1.5193 H   0  0  0  0  0  0  0  0  0  0  0  0
   -4.2887   -1.8534    1.4223 H   0  0  0  0  0  0  0  0  0  0  0  0
   -3.3144   -2.0953   -0.0630 H   0  0  0  0  0  0  0  0  0  0  0  0
   -3.3580    1.7474   -0.3278 H   0  0  0  0  0  0  0  0  0  0  0  0
  1  6  1  0  0  0  0
  1 16  1  0  0  0  0
  2 16  2  0  0  0  0
  3 19  2  0  0  0  0
  4 15  1  0  0  0  0
  4 19  1  0  0  0  0
  4 44  1  0  0  0  0
  5  6  1  0  0  0  0
  5  7  1  0  0  0  0
  5 11  1  0  0  0  0
  5 20  1  0  0  0  0
  6  9  1  0  0  0  0
  6 21  1  0  0  0  0
  7 10  1  0  0  0  0
  7 22  1  0  0  0  0
  7 23  1  0  0  0  0
  8  9  1  0  0  0  0
  8 10  1  0  0  0  0
  8 12  1  0  0  0  0
  8 24  1  0  0  0  0
  9 25  1  0  0  0  0
  9 26  1  0  0  0  0
 10 27  1  0  0  0  0
 10 28  1  0  0  0  0
 11 13  1  0  0  0  0
 11 14  1  0  0  0  0
 11 29  1  0  0  0  0
 12 30  1  0  0  0  0
 12 31  1  0  0  0  0
 12 32  1  0  0  0  0
 13 33  1  0  0  0  0
 13 34  1  0  0  0  0
 13 35  1  0  0  0  0
 14 36  1  0  0  0  0
 14 37  1  0  0  0  0
 14 38  1  0  0  0  0
 15 16  1  0  0  0  0
 15 17  1  0  0  0  0
 15 39  1  0  0  0  0
 17 18  1  0  0  0  0
 17 40  1  0  0  0  0
 17 41  1  0  0  0  0
 18 19  1  0  0  0  0
 18 42  1  0  0  0  0
 18 43  1  0  0  0  0
M  END
> <PUBCHEM_COMPOUND_CID>
109140

> <PUBCHEM_CONFORMER_RMSD>
0.8

> <PUBCHEM_CONFORMER_DIVERSEORDER>
1
147
53
279
242
100
159
88
226
296
216
152
280
77
81
258
239
30
90
237
224
105
190
109
136
208
57
145
78
187
73
192
83
126
112
288
23
139
10
270
103
102
295
291
277
247
33
254
50
263
256
72
15
164
52
274
195
148
94
45
135
157
217
219
281
99
203
61
129
107
14
193
260
142
91
74
294
16
75
17
267
46
65
36
68
24
69
209
262
232
233
35
246
240
71
155
56
172
259
49
163
32
194
86
189
165
275
221
2
191
188
284
265
282
202
40
211
218
27
185
199
51
122
125
251
44
230
84
12
229
25
34
276
178
144
6
210
124
150
231
161
60
5
174
206
146
93
149
248
4
196
3
264
201
111
67
54
253
170
166
151
113
31
82
266
244
278
177
42
285
160
268
26
183
37
228
79
198
252
120
200
223
101
290
118
29
234
184
18
175
141
214
156
283
176
255
108
249
180
8
220
271
63
41
123
22
106
272
95
138
116
169
66
114
245
287
11
197
133
207
225
269
204
55
9
273
222
48
131
127
213
132
153
154
286
289
227
215
168
181
292
19
235
137
98
20
143
58
64
115
39
96
7
104
205
110
21
293
121
173
158
38
182
85
241
43
128
261
87
134
13
117
59
47
243
140
212
236
186
76
167
179
171
28
250
80
97
62
130
92
257
162
119
238
89
70

> <PUBCHEM_MMFF94_PARTIAL_CHARGES>
10
1 -0.43
15 0.36
16 0.66
18 0.06
19 0.57
2 -0.57
3 -0.57
4 -0.73
44 0.37
6 0.28

> <PUBCHEM_EFFECTIVE_ROTOR_COUNT>
6

> <PUBCHEM_PHARMACOPHORE_FEATURES>
6
1 2 acceptor
1 3 acceptor
1 4 donor
3 11 13 14 hydrophobe
5 4 15 17 18 19 rings
6 5 6 7 8 9 10 rings

> <PUBCHEM_HEAVY_ATOM_COUNT>
19

> <PUBCHEM_ATOM_DEF_STEREO_COUNT>
0

> <PUBCHEM_ATOM_UDEF_STEREO_COUNT>
4

> <PUBCHEM_BOND_DEF_STEREO_COUNT>
0

> <PUBCHEM_BOND_UDEF_STEREO_COUNT>
0

> <PUBCHEM_ISOTOPIC_ATOM_COUNT>
0

> <PUBCHEM_COMPONENT_COUNT>
1

> <PUBCHEM_CACTVS_TAUTO_COUNT>
3

> <PUBCHEM_CONFORMER_ID>
0001AA5400000001

> <PUBCHEM_MMFF94_ENERGY>
40.9546

> <PUBCHEM_FEATURE_SELFOVERLAP>
30.446

> <PUBCHEM_SHAPE_FINGERPRINT>
10366900 7 18334866055585872721
1100329 8 15887434870961013314
11370993 70 18265893734278216363
11640471 11 17417807413098126672
12363563 72 18193001421931204106
12506688 2 18262805038749277178
12507560 14 18341047415431064663
12553582 1 18122649178859525474
12633257 1 17823117085952703936
13134695 92 18409727331428834884
13140716 1 18123459751316236488
13533116 47 18408889546987660323
13544592 145 18040150687313782803
13583140 156 18058164106617934355
14251739 40 18273491260920761879
14289901 80 18270965760210991571
14787075 74 17194893688761635419
14866123 147 16968294813080676819
14955137 171 18337670919145450624
15422964 175 18124316012923269078
16752209 62 15502642772829340655
16945 1 18339066190447062820
17492 89 18337392746592915411
17841504 4 18409454656586866896
1813 80 17916037754714862966
19049666 15 18115858616436685037
20157964 124 18340480162695704109
20369508 70 18261390018597070795
20559304 39 18342182167355181548
20645477 70 18410574007022218943
20832881 197 18043532716234660531
21041028 32 18268426841644015152
21524375 3 17769664422863342780
21756936 100 17550105205303480020
2255824 54 18342182210505042004
22854114 111 18271527601556785809
23419403 2 18043788945583567836
23557571 272 16877656838627892316
23558518 356 17621587742085182118
23559900 14 18410292523413141955
2748010 2 18124012569547262652
3060560 45 18341901852478492652
31174 14 18335698360070640876
3286 77 18334576811113453167
3797600 57 17200534084290619387
474 4 18198058277596618808
495365 180 18339919441281832521
5104073 3 18411992364669801427
6443956 14 18337111150839265550
7364860 26 18411706512482981852
7615 1 17632033965557899633
81228 2 17618781358708906020
8272917 22 18341336668698861473
9709674 26 18261960747068769731

> <PUBCHEM_SHAPE_MULTIPOLES>
368.42
7.76
3.21
1.22
9.58
1.09
0.09
-2.46
-1.33
-4.64
0.13
-0.1
-0.2
0.54

> <PUBCHEM_SHAPE_SELFOVERLAP>
752.894

> <PUBCHEM_SHAPE_VOLUME>
213.1

> <PUBCHEM_COORDINATE_TYPE>
2
5
10

$$$$
