109187
  -OEChem-11232108493D

 40 39  0     1  0  0  0  0  0999 V2000
   -2.6103   -1.1812    0.9486 O   0  0  0  0  0  0  0  0  0  0  0  0
   -3.9031   -0.0250   -0.6476 O   0  0  0  0  0  0  0  0  0  0  0  0
   -0.5080    0.9093    0.8508 C   0  0  2  0  0  0  0  0  0  0  0  0
    0.4144    0.3444   -0.2530 C   0  0  0  0  0  0  0  0  0  0  0  0
    1.8719    0.1654    0.1905 C   0  0  0  0  0  0  0  0  0  0  0  0
    2.7427   -0.3248   -0.9728 C   0  0  0  0  0  0  0  0  0  0  0  0
   -1.9422    1.0280    0.2853 C   0  0  0  0  0  0  0  0  0  0  0  0
    4.2414   -0.4855   -0.6530 C   0  0  0  0  0  0  0  0  0  0  0  0
   -0.0005    2.2535    1.3806 C   0  0  0  0  0  0  0  0  0  0  0  0
   -2.5764   -0.2938   -0.1764 C   0  0  0  0  0  0  0  0  0  0  0  0
    4.5090   -1.6246    0.3307 C   0  0  0  0  0  0  0  0  0  0  0  0
    4.8730    0.8130   -0.1516 C   0  0  0  0  0  0  0  0  0  0  0  0
   -3.1833   -2.4412    0.6254 C   0  0  0  0  0  0  0  0  0  0  0  0
   -3.9288    0.8624   -1.7576 C   0  0  0  0  0  0  0  0  0  0  0  0
   -0.5197    0.2056    1.6926 H   0  0  0  0  0  0  0  0  0  0  0  0
    0.3809    1.0059   -1.1283 H   0  0  0  0  0  0  0  0  0  0  0  0
    0.0559   -0.6369   -0.5801 H   0  0  0  0  0  0  0  0  0  0  0  0
    1.9140   -0.5426    1.0252 H   0  0  0  0  0  0  0  0  0  0  0  0
    2.2667    1.1208    0.5452 H   0  0  0  0  0  0  0  0  0  0  0  0
    2.6453    0.3828   -1.8068 H   0  0  0  0  0  0  0  0  0  0  0  0
    2.3517   -1.2832   -1.3375 H   0  0  0  0  0  0  0  0  0  0  0  0
   -2.5851    1.4650    1.0618 H   0  0  0  0  0  0  0  0  0  0  0  0
   -1.9180    1.7593   -0.5303 H   0  0  0  0  0  0  0  0  0  0  0  0
    4.7388   -0.7492   -1.5960 H   0  0  0  0  0  0  0  0  0  0  0  0
   -0.7329    2.6980    2.0633 H   0  0  0  0  0  0  0  0  0  0  0  0
    0.9299    2.1393    1.9446 H   0  0  0  0  0  0  0  0  0  0  0  0
    0.1721    2.9630    0.5646 H   0  0  0  0  0  0  0  0  0  0  0  0
   -2.0078   -0.7612   -0.9872 H   0  0  0  0  0  0  0  0  0  0  0  0
    4.0954   -1.4102    1.3212 H   0  0  0  0  0  0  0  0  0  0  0  0
    5.5859   -1.7868    0.4480 H   0  0  0  0  0  0  0  0  0  0  0  0
    4.0680   -2.5604   -0.0279 H   0  0  0  0  0  0  0  0  0  0  0  0
    5.9624    0.7106   -0.0973 H   0  0  0  0  0  0  0  0  0  0  0  0
    4.6510    1.6435   -0.8297 H   0  0  0  0  0  0  0  0  0  0  0  0
    4.5203    1.0805    0.8495 H   0  0  0  0  0  0  0  0  0  0  0  0
   -4.2405   -2.3334    0.3661 H   0  0  0  0  0  0  0  0  0  0  0  0
   -3.1100   -3.0855    1.5057 H   0  0  0  0  0  0  0  0  0  0  0  0
   -2.6375   -2.9134   -0.1971 H   0  0  0  0  0  0  0  0  0  0  0  0
   -4.8922    0.7384   -2.2611 H   0  0  0  0  0  0  0  0  0  0  0  0
   -3.1364    0.6356   -2.4778 H   0  0  0  0  0  0  0  0  0  0  0  0
   -3.8691    1.9020   -1.4244 H   0  0  0  0  0  0  0  0  0  0  0  0
  1 10  1  0  0  0  0
  1 13  1  0  0  0  0
  2 10  1  0  0  0  0
  2 14  1  0  0  0  0
  3  4  1  0  0  0  0
  3  7  1  0  0  0  0
  3  9  1  0  0  0  0
  3 15  1  0  0  0  0
  4  5  1  0  0  0  0
  4 16  1  0  0  0  0
  4 17  1  0  0  0  0
  5  6  1  0  0  0  0
  5 18  1  0  0  0  0
  5 19  1  0  0  0  0
  6  8  1  0  0  0  0
  6 20  1  0  0  0  0
  6 21  1  0  0  0  0
  7 10  1  0  0  0  0
  7 22  1  0  0  0  0
  7 23  1  0  0  0  0
  8 11  1  0  0  0  0
  8 12  1  0  0  0  0
  8 24  1  0  0  0  0
  9 25  1  0  0  0  0
  9 26  1  0  0  0  0
  9 27  1  0  0  0  0
 10 28  1  0  0  0  0
 11 29  1  0  0  0  0
 11 30  1  0  0  0  0
 11 31  1  0  0  0  0
 12 32  1  0  0  0  0
 12 33  1  0  0  0  0
 12 34  1  0  0  0  0
 13 35  1  0  0  0  0
 13 36  1  0  0  0  0
 13 37  1  0  0  0  0
 14 38  1  0  0  0  0
 14 39  1  0  0  0  0
 14 40  1  0  0  0  0
M  END
> <PUBCHEM_COMPOUND_CID>
109187

> <PUBCHEM_CONFORMER_RMSD>
0.8

> <PUBCHEM_CONFORMER_DIVERSEORDER>
2
24
35
28
27
50
38
37
1
40
36
11
9
30
33
13
46
26
47
8
14
7
54
49
23
43
17
45
4
53
22
31
6
48
10
3
51
32
21
41
29
20
42
19
18
34
16
25
12
44
5
39
55
52
15

> <PUBCHEM_MMFF94_PARTIAL_CHARGES>
5
1 -0.56
10 0.56
13 0.28
14 0.28
2 -0.56

> <PUBCHEM_EFFECTIVE_ROTOR_COUNT>
8

> <PUBCHEM_PHARMACOPHORE_FEATURES>
6
1 1 acceptor
1 2 acceptor
1 9 hydrophobe
3 3 4 7 hydrophobe
3 5 6 8 hydrophobe
3 8 11 12 hydrophobe

> <PUBCHEM_HEAVY_ATOM_COUNT>
14

> <PUBCHEM_ATOM_DEF_STEREO_COUNT>
0

> <PUBCHEM_ATOM_UDEF_STEREO_COUNT>
1

> <PUBCHEM_BOND_DEF_STEREO_COUNT>
0

> <PUBCHEM_BOND_UDEF_STEREO_COUNT>
0

> <PUBCHEM_ISOTOPIC_ATOM_COUNT>
0

> <PUBCHEM_COMPONENT_COUNT>
1

> <PUBCHEM_CACTVS_TAUTO_COUNT>
1

> <PUBCHEM_CONFORMER_ID>
0001AA8300000002

> <PUBCHEM_MMFF94_ENERGY>
27.6287

> <PUBCHEM_FEATURE_SELFOVERLAP>
31.397

> <PUBCHEM_SHAPE_FINGERPRINT>
11127187 94 18408325501606549279
11543360 7 17676777573179535604
11615757 297 15769774663231537128
12892183 10 12031786963665692868
14251764 30 17098077189169644163
15880784 105 15984817117274812406
17834072 14 18411981364736355020
19433438 15 16660650656601618262
200 152 18273210868170373316
20645476 183 17458339741415420371
20671657 53 18408609166616050740
20711985 327 16702305675847094760
20871999 31 17967810583222458591
21061003 4 17846224388072705121
21079973 296 18412826919226840848
21119208 17 17530684286022393566
22485316 2 18187083957919407286
22959321 105 18261680349943740084
23402539 116 18129942274141480284
23402655 69 17167864128164936702
23403322 49 18411420626559449691
23557571 272 17895748642271990797
23559900 14 18409445882686054144
26918003 58 18410570674306717854
27216 239 9871753485941635327
4921388 177 16950290641083369155
5283173 99 18267574728369528172
5493415 88 18270402809872513289
59027123 10 17095250228161083342
6430166 295 8070034329027620436
81228 2 17771929154544092345
9709674 26 18057615265453239310
9882013 296 16200433555047059044

> <PUBCHEM_SHAPE_MULTIPOLES>
276.37
9.91
1.98
1.26
6.65
0.44
0.23
3.17
2.72
-0.94
-0.94
-0.97
-0.31
0.78

> <PUBCHEM_SHAPE_SELFOVERLAP>
501.692

> <PUBCHEM_SHAPE_VOLUME>
178

> <PUBCHEM_COORDINATE_TYPE>
2
5
10

$$$$
