109116
  -OEChem-11232109023D

 31 31  0     0  0  0  0  0  0999 V2000
    1.3188    0.9409    0.0245 O   0  0  0  0  0  0  0  0  0  0  0  0
    3.4868    0.5837    0.1523 O   0  0  0  0  0  0  0  0  0  0  0  0
    2.1113   -1.1817   -0.3993 O   0  0  0  0  0  0  0  0  0  0  0  0
   -0.0228    0.4886   -0.2128 C   0  0  0  0  0  0  0  0  0  0  0  0
   -0.3241   -0.6260    0.7957 C   0  0  0  0  0  0  0  0  0  0  0  0
   -0.9093    1.7307   -0.0677 C   0  0  0  0  0  0  0  0  0  0  0  0
   -1.1550   -1.7903    0.2544 C   0  0  0  0  0  0  0  0  0  0  0  0
   -2.3880    1.5853   -0.4290 C   0  0  0  0  0  0  0  0  0  0  0  0
   -2.3481   -1.4621   -0.6365 C   0  0  0  0  0  0  0  0  0  0  0  0
   -3.1962    0.7127    0.5304 C   0  0  0  0  0  0  0  0  0  0  0  0
   -3.4892   -0.7013    0.0307 C   0  0  0  0  0  0  0  0  0  0  0  0
    2.2865   -0.0069   -0.1050 C   0  0  0  0  0  0  0  0  0  0  0  0
    4.6294   -0.2738    0.0624 C   0  0  0  0  0  0  0  0  0  0  0  0
   -0.0646    0.1283   -1.2475 H   0  0  0  0  0  0  0  0  0  0  0  0
   -0.8524   -0.1945    1.6533 H   0  0  0  0  0  0  0  0  0  0  0  0
    0.5612   -1.0498    1.2805 H   0  0  0  0  0  0  0  0  0  0  0  0
   -0.4882    2.5192   -0.7073 H   0  0  0  0  0  0  0  0  0  0  0  0
   -0.8176    2.1284    0.9523 H   0  0  0  0  0  0  0  0  0  0  0  0
   -1.4956   -2.3990    1.1015 H   0  0  0  0  0  0  0  0  0  0  0  0
   -0.4832   -2.4365   -0.3257 H   0  0  0  0  0  0  0  0  0  0  0  0
   -2.5029    1.2594   -1.4684 H   0  0  0  0  0  0  0  0  0  0  0  0
   -2.8172    2.5958   -0.3903 H   0  0  0  0  0  0  0  0  0  0  0  0
   -2.7603   -2.4173   -0.9892 H   0  0  0  0  0  0  0  0  0  0  0  0
   -2.0205   -0.9474   -1.5453 H   0  0  0  0  0  0  0  0  0  0  0  0
   -4.1711    1.1958    0.6844 H   0  0  0  0  0  0  0  0  0  0  0  0
   -2.7433    0.6891    1.5260 H   0  0  0  0  0  0  0  0  0  0  0  0
   -4.3070   -0.6358   -0.6994 H   0  0  0  0  0  0  0  0  0  0  0  0
   -3.8834   -1.2934    0.8660 H   0  0  0  0  0  0  0  0  0  0  0  0
    4.7244   -0.6729   -0.9520 H   0  0  0  0  0  0  0  0  0  0  0  0
    4.5517   -1.0857    0.7919 H   0  0  0  0  0  0  0  0  0  0  0  0
    5.5186    0.3195    0.2910 H   0  0  0  0  0  0  0  0  0  0  0  0
  1  4  1  0  0  0  0
  1 12  1  0  0  0  0
  2 12  1  0  0  0  0
  2 13  1  0  0  0  0
  3 12  2  0  0  0  0
  4  5  1  0  0  0  0
  4  6  1  0  0  0  0
  4 14  1  0  0  0  0
  5  7  1  0  0  0  0
  5 15  1  0  0  0  0
  5 16  1  0  0  0  0
  6  8  1  0  0  0  0
  6 17  1  0  0  0  0
  6 18  1  0  0  0  0
  7  9  1  0  0  0  0
  7 19  1  0  0  0  0
  7 20  1  0  0  0  0
  8 10  1  0  0  0  0
  8 21  1  0  0  0  0
  8 22  1  0  0  0  0
  9 11  1  0  0  0  0
  9 23  1  0  0  0  0
  9 24  1  0  0  0  0
 10 11  1  0  0  0  0
 10 25  1  0  0  0  0
 10 26  1  0  0  0  0
 11 27  1  0  0  0  0
 11 28  1  0  0  0  0
 13 29  1  0  0  0  0
 13 30  1  0  0  0  0
 13 31  1  0  0  0  0
M  END
> <PUBCHEM_COMPOUND_CID>
109116

> <PUBCHEM_CONFORMER_RMSD>
0.6

> <PUBCHEM_CONFORMER_DIVERSEORDER>
3
15
9
41
16
35
40
28
39
42
37
20
12
33
21
38
13
23
25
34
36
24
14
31
8
11
19
7
27
18
29
1
2
32
4
6
17
10
5
22
26
30

> <PUBCHEM_MMFF94_PARTIAL_CHARGES>
6
1 -0.43
12 0.87
13 0.28
2 -0.43
3 -0.57
4 0.28

> <PUBCHEM_EFFECTIVE_ROTOR_COUNT>
4.6

> <PUBCHEM_PHARMACOPHORE_FEATURES>
0

> <PUBCHEM_HEAVY_ATOM_COUNT>
13

> <PUBCHEM_ATOM_DEF_STEREO_COUNT>
0

> <PUBCHEM_ATOM_UDEF_STEREO_COUNT>
0

> <PUBCHEM_BOND_DEF_STEREO_COUNT>
0

> <PUBCHEM_BOND_UDEF_STEREO_COUNT>
0

> <PUBCHEM_ISOTOPIC_ATOM_COUNT>
0

> <PUBCHEM_COMPONENT_COUNT>
1

> <PUBCHEM_CACTVS_TAUTO_COUNT>
1

> <PUBCHEM_CONFORMER_ID>
0001AA3C00000003

> <PUBCHEM_MMFF94_ENERGY>
31.3041

> <PUBCHEM_FEATURE_SELFOVERLAP>
0

> <PUBCHEM_SHAPE_FINGERPRINT>
11132069 177 18412259532213746896
13024252 1 17240484715153424809
13380535 76 18411700959106436702
14325111 11 18337110059912576937
14577589 140 17989208178493844255
15219456 202 18130512924718010526
15775835 57 18336267838659201713
16945 1 18408044034971684511
200 152 17489584567177598246
20201158 50 18343022198465068094
20510252 161 18271527494430621089
20871998 184 18272092712253043871
21501502 16 18267589185297576492
23402539 116 18410002239131388180
23559900 14 18270959047525306194
2748010 2 18048321046302613021
353137 74 18261667104232989595
6333449 129 18413386531705907893
69090 78 18342454829085186271
75552 356 18410293639819750199
8809292 202 18335422421333310970
9709674 26 18412269432519909958

> <PUBCHEM_SHAPE_MULTIPOLES>
249.93
6.8
1.78
0.74
6.64
0.01
-0.02
0.31
-0.05
-1.25
0.14
-0.21
0.06
-0.02

> <PUBCHEM_SHAPE_SELFOVERLAP>
483.147

> <PUBCHEM_SHAPE_VOLUME>
149.8

> <PUBCHEM_COORDINATE_TYPE>
2
5
10

$$$$
