109183
  -OEChem-11232108423D

 46 45  0     1  0  0  0  0  0999 V2000
    4.3097   -1.3969    0.4849 O   0  0  0  0  0  0  0  0  0  0  0  0
    5.4366    0.5980   -0.0825 O   0  0  0  0  0  0  0  0  0  0  0  0
    1.7092   -0.1977   -0.1966 C   0  0  0  0  0  0  0  0  0  0  0  0
    2.9976    0.6044    0.1037 C   0  0  2  0  0  0  0  0  0  0  0  0
    0.4250    0.5902    0.0865 C   0  0  0  0  0  0  0  0  0  0  0  0
   -0.8501   -0.1948   -0.2413 C   0  0  0  0  0  0  0  0  0  0  0  0
   -2.1672    0.5089    0.1014 C   0  0  0  0  0  0  0  0  0  0  0  0
   -3.4405   -0.2965   -0.1762 C   0  0  0  0  0  0  0  0  0  0  0  0
    4.2636   -0.1954   -0.2989 C   0  0  0  0  0  0  0  0  0  0  0  0
   -4.7597    0.4322    0.0974 C   0  0  0  0  0  0  0  0  0  0  0  0
    3.0775    1.0123    1.5795 C   0  0  0  0  0  0  0  0  0  0  0  0
   -5.9947   -0.4446   -0.1194 C   0  0  0  0  0  0  0  0  0  0  0  0
   -7.2830    0.3555    0.0779 C   0  0  0  0  0  0  0  0  0  0  0  0
   -8.5142   -0.5004   -0.1735 C   0  0  0  0  0  0  0  0  0  0  0  0
    5.1100   -2.4060   -0.1165 C   0  0  0  0  0  0  0  0  0  0  0  0
    5.6801    1.5307   -1.1264 C   0  0  0  0  0  0  0  0  0  0  0  0
    1.6978   -1.1218    0.3946 H   0  0  0  0  0  0  0  0  0  0  0  0
    1.7149   -0.4975   -1.2521 H   0  0  0  0  0  0  0  0  0  0  0  0
    2.9626    1.5287   -0.4847 H   0  0  0  0  0  0  0  0  0  0  0  0
    0.4315    1.5228   -0.4902 H   0  0  0  0  0  0  0  0  0  0  0  0
    0.3828    0.8675    1.1453 H   0  0  0  0  0  0  0  0  0  0  0  0
   -0.8205   -1.1515    0.2957 H   0  0  0  0  0  0  0  0  0  0  0  0
   -0.8496   -0.4406   -1.3106 H   0  0  0  0  0  0  0  0  0  0  0  0
   -2.2156    1.4493   -0.4618 H   0  0  0  0  0  0  0  0  0  0  0  0
   -2.1543    0.7854    1.1632 H   0  0  0  0  0  0  0  0  0  0  0  0
   -3.4300   -0.6188   -1.2252 H   0  0  0  0  0  0  0  0  0  0  0  0
   -3.4096   -1.2120    0.4282 H   0  0  0  0  0  0  0  0  0  0  0  0
    4.1883   -0.4689   -1.3605 H   0  0  0  0  0  0  0  0  0  0  0  0
   -4.7575    0.8019    1.1302 H   0  0  0  0  0  0  0  0  0  0  0  0
   -4.8165    1.3133   -0.5537 H   0  0  0  0  0  0  0  0  0  0  0  0
    4.0261    1.5090    1.8078 H   0  0  0  0  0  0  0  0  0  0  0  0
    2.2871    1.7236    1.8379 H   0  0  0  0  0  0  0  0  0  0  0  0
    2.9815    0.1456    2.2420 H   0  0  0  0  0  0  0  0  0  0  0  0
   -5.9733   -0.8595   -1.1344 H   0  0  0  0  0  0  0  0  0  0  0  0
   -5.9716   -1.2914    0.5769 H   0  0  0  0  0  0  0  0  0  0  0  0
   -7.2982    1.2129   -0.6049 H   0  0  0  0  0  0  0  0  0  0  0  0
   -7.3214    0.7528    1.0989 H   0  0  0  0  0  0  0  0  0  0  0  0
   -8.5222   -0.8850   -1.1984 H   0  0  0  0  0  0  0  0  0  0  0  0
   -8.5467   -1.3520    0.5136 H   0  0  0  0  0  0  0  0  0  0  0  0
   -9.4234    0.0906   -0.0254 H   0  0  0  0  0  0  0  0  0  0  0  0
    4.6789   -2.7153   -1.0733 H   0  0  0  0  0  0  0  0  0  0  0  0
    6.1344   -2.0501   -0.2612 H   0  0  0  0  0  0  0  0  0  0  0  0
    5.1312   -3.2713    0.5513 H   0  0  0  0  0  0  0  0  0  0  0  0
    5.7738    1.0185   -2.0887 H   0  0  0  0  0  0  0  0  0  0  0  0
    4.8937    2.2877   -1.1750 H   0  0  0  0  0  0  0  0  0  0  0  0
    6.6257    2.0376   -0.9141 H   0  0  0  0  0  0  0  0  0  0  0  0
  1  9  1  0  0  0  0
  1 15  1  0  0  0  0
  2  9  1  0  0  0  0
  2 16  1  0  0  0  0
  3  4  1  0  0  0  0
  3  5  1  0  0  0  0
  3 17  1  0  0  0  0
  3 18  1  0  0  0  0
  4  9  1  0  0  0  0
  4 11  1  0  0  0  0
  4 19  1  0  0  0  0
  5  6  1  0  0  0  0
  5 20  1  0  0  0  0
  5 21  1  0  0  0  0
  6  7  1  0  0  0  0
  6 22  1  0  0  0  0
  6 23  1  0  0  0  0
  7  8  1  0  0  0  0
  7 24  1  0  0  0  0
  7 25  1  0  0  0  0
  8 10  1  0  0  0  0
  8 26  1  0  0  0  0
  8 27  1  0  0  0  0
  9 28  1  0  0  0  0
 10 12  1  0  0  0  0
 10 29  1  0  0  0  0
 10 30  1  0  0  0  0
 11 31  1  0  0  0  0
 11 32  1  0  0  0  0
 11 33  1  0  0  0  0
 12 13  1  0  0  0  0
 12 34  1  0  0  0  0
 12 35  1  0  0  0  0
 13 14  1  0  0  0  0
 13 36  1  0  0  0  0
 13 37  1  0  0  0  0
 14 38  1  0  0  0  0
 14 39  1  0  0  0  0
 14 40  1  0  0  0  0
 15 41  1  0  0  0  0
 15 42  1  0  0  0  0
 15 43  1  0  0  0  0
 16 44  1  0  0  0  0
 16 45  1  0  0  0  0
 16 46  1  0  0  0  0
M  END
> <PUBCHEM_COMPOUND_CID>
109183

> <PUBCHEM_CONFORMER_RMSD>
1.2

> <PUBCHEM_CONFORMER_DIVERSEORDER>
1
39
3
30
40
11
29
19
9
44
16
36
15
4
45
10
28
14
48
20
17
6
47
46
37
22
2
38
32
34
26
23
5
25
27
41
33
18
13
24
43
35
21
42
8
7
12
31

> <PUBCHEM_MMFF94_PARTIAL_CHARGES>
5
1 -0.56
15 0.28
16 0.28
2 -0.56
9 0.56

> <PUBCHEM_EFFECTIVE_ROTOR_COUNT>
11

> <PUBCHEM_PHARMACOPHORE_FEATURES>
4
1 1 acceptor
1 11 hydrophobe
1 14 hydrophobe
1 2 acceptor

> <PUBCHEM_HEAVY_ATOM_COUNT>
16

> <PUBCHEM_ATOM_DEF_STEREO_COUNT>
0

> <PUBCHEM_ATOM_UDEF_STEREO_COUNT>
1

> <PUBCHEM_BOND_DEF_STEREO_COUNT>
0

> <PUBCHEM_BOND_UDEF_STEREO_COUNT>
0

> <PUBCHEM_ISOTOPIC_ATOM_COUNT>
0

> <PUBCHEM_COMPONENT_COUNT>
1

> <PUBCHEM_CACTVS_TAUTO_COUNT>
1

> <PUBCHEM_CONFORMER_ID>
0001AA7F00000001

> <PUBCHEM_MMFF94_ENERGY>
19.7252

> <PUBCHEM_FEATURE_SELFOVERLAP>
20.336

> <PUBCHEM_SHAPE_FINGERPRINT>
12091667 2 18408604769745367373
12616971 3 15913035543763533897
13533116 47 18343300336252475738
1420 363 17603869992529436139
14251764 18 18273498970903925353
14251764 46 18260547835544655376
15716309 27 18413670206518328999
17834076 25 18409449194016200829
20281389 69 18202562869999621385
20621476 38 18341894026452493343
20645477 70 18336547119398539726
21150785 3 18411985788394583461
220451 1 18201718474859785007
22224240 67 15936407871145915937
23035841 295 17989486325815028839
23521765 1 18342176679030289197
300161 21 15430032188651093913
33532 11 18410854339801769103
34797466 226 17603307063396866844
42788 4 17846779616329016617
522135 26 18412544306511071040
6025842 7 18408327679614073422
8209 1 18412826897989537053

> <PUBCHEM_SHAPE_MULTIPOLES>
317.53
22.21
1.43
0.88
37.16
0.74
0.15
2.39
-2.26
-3.25
-0.02
-1.02
-0.27
-0.5

> <PUBCHEM_SHAPE_SELFOVERLAP>
572.04

> <PUBCHEM_SHAPE_VOLUME>
205

> <PUBCHEM_COORDINATE_TYPE>
2
5
10

$$$$
