109263
  -OEChem-11232109093D

 37 38  0     1  0  0  0  0  0999 V2000
    3.1565   -0.6089    0.0498 O   0  0  0  0  0  0  0  0  0  0  0  0
    0.0194   -0.3411   -0.7343 C   0  0  2  0  0  0  0  0  0  0  0  0
   -1.4262    0.0918   -0.2844 C   0  0  2  0  0  0  0  0  0  0  0  0
    0.8220   -0.7778    0.5206 C   0  0  2  0  0  0  0  0  0  0  0  0
   -1.3137    1.1692    0.8405 C   0  0  0  0  0  0  0  0  0  0  0  0
    0.6999    0.9323   -1.3389 C   0  0  0  0  0  0  0  0  0  0  0  0
    0.1577    1.5999    0.9016 C   0  0  0  0  0  0  0  0  0  0  0  0
    0.9562    0.4239    1.4761 C   0  0  0  0  0  0  0  0  0  0  0  0
   -2.3004   -1.0822    0.1485 C   0  0  0  0  0  0  0  0  0  0  0  0
    0.5935    2.0437   -0.3026 C   0  0  0  0  0  0  0  0  0  0  0  0
    2.1621   -1.3284    0.1309 C   0  0  0  0  0  0  0  0  0  0  0  0
   -3.7022   -0.6011    0.5160 C   0  0  0  0  0  0  0  0  0  0  0  0
   -2.3667   -2.1376   -0.9533 C   0  0  0  0  0  0  0  0  0  0  0  0
    0.3115    3.4211   -0.8173 C   0  0  0  0  0  0  0  0  0  0  0  0
    2.2306   -2.8045   -0.1533 C   0  0  0  0  0  0  0  0  0  0  0  0
    0.0081   -1.1178   -1.5039 H   0  0  0  0  0  0  0  0  0  0  0  0
   -1.9091    0.5684   -1.1511 H   0  0  0  0  0  0  0  0  0  0  0  0
    0.3020   -1.5817    1.0543 H   0  0  0  0  0  0  0  0  0  0  0  0
   -1.6098    0.7801    1.8217 H   0  0  0  0  0  0  0  0  0  0  0  0
   -1.9647    2.0259    0.6282 H   0  0  0  0  0  0  0  0  0  0  0  0
    0.1662    1.2136   -2.2551 H   0  0  0  0  0  0  0  0  0  0  0  0
    1.7450    0.7599   -1.6117 H   0  0  0  0  0  0  0  0  0  0  0  0
    1.9909    0.7370    1.6568 H   0  0  0  0  0  0  0  0  0  0  0  0
    0.5550    0.1605    2.4633 H   0  0  0  0  0  0  0  0  0  0  0  0
   -1.8847   -1.5593    1.0438 H   0  0  0  0  0  0  0  0  0  0  0  0
   -4.1753   -0.0787   -0.3228 H   0  0  0  0  0  0  0  0  0  0  0  0
   -4.3430   -1.4497    0.7810 H   0  0  0  0  0  0  0  0  0  0  0  0
   -3.6991    0.0735    1.3769 H   0  0  0  0  0  0  0  0  0  0  0  0
   -2.6392   -1.6970   -1.9183 H   0  0  0  0  0  0  0  0  0  0  0  0
   -3.1175   -2.8989   -0.7131 H   0  0  0  0  0  0  0  0  0  0  0  0
   -1.4166   -2.6679   -1.0666 H   0  0  0  0  0  0  0  0  0  0  0  0
    1.2180    3.8435   -1.2619 H   0  0  0  0  0  0  0  0  0  0  0  0
   -0.0078    4.0911   -0.0120 H   0  0  0  0  0  0  0  0  0  0  0  0
   -0.4760    3.4073   -1.5775 H   0  0  0  0  0  0  0  0  0  0  0  0
    1.9878   -3.3649    0.7529 H   0  0  0  0  0  0  0  0  0  0  0  0
    1.5331   -3.0613   -0.9542 H   0  0  0  0  0  0  0  0  0  0  0  0
    3.2424   -3.0702   -0.4721 H   0  0  0  0  0  0  0  0  0  0  0  0
  1 11  2  0  0  0  0
  2  3  1  0  0  0  0
  2  4  1  0  0  0  0
  2  6  1  0  0  0  0
  2 16  1  0  0  0  0
  3  5  1  0  0  0  0
  3  9  1  0  0  0  0
  3 17  1  0  0  0  0
  4  8  1  0  0  0  0
  4 11  1  0  0  0  0
  4 18  1  0  0  0  0
  5  7  1  0  0  0  0
  5 19  1  0  0  0  0
  5 20  1  0  0  0  0
  6 10  1  0  0  0  0
  6 21  1  0  0  0  0
  6 22  1  0  0  0  0
  7  8  1  0  0  0  0
  7 10  2  0  0  0  0
  8 23  1  0  0  0  0
  8 24  1  0  0  0  0
  9 12  1  0  0  0  0
  9 13  1  0  0  0  0
  9 25  1  0  0  0  0
 10 14  1  0  0  0  0
 11 15  1  0  0  0  0
 12 26  1  0  0  0  0
 12 27  1  0  0  0  0
 12 28  1  0  0  0  0
 13 29  1  0  0  0  0
 13 30  1  0  0  0  0
 13 31  1  0  0  0  0
 14 32  1  0  0  0  0
 14 33  1  0  0  0  0
 14 34  1  0  0  0  0
 15 35  1  0  0  0  0
 15 36  1  0  0  0  0
 15 37  1  0  0  0  0
M  END
> <PUBCHEM_COMPOUND_CID>
109263

> <PUBCHEM_CONFORMER_RMSD>
0.6

> <PUBCHEM_CONFORMER_DIVERSEORDER>
1
17
10
25
18
13
21
11
26
22
4
5
20
8
23
27
7
24
3
6
2
12
19
15
14
9
16

> <PUBCHEM_MMFF94_PARTIAL_CHARGES>
10
1 -0.57
10 -0.28
11 0.45
14 0.14
15 0.06
4 0.06
5 0.14
6 0.14
7 -0.28
8 0.14

> <PUBCHEM_EFFECTIVE_ROTOR_COUNT>
3

> <PUBCHEM_PHARMACOPHORE_FEATURES>
3
1 1 acceptor
3 9 12 13 hydrophobe
8 2 3 4 5 6 7 8 10 rings

> <PUBCHEM_HEAVY_ATOM_COUNT>
15

> <PUBCHEM_ATOM_DEF_STEREO_COUNT>
0

> <PUBCHEM_ATOM_UDEF_STEREO_COUNT>
3

> <PUBCHEM_BOND_DEF_STEREO_COUNT>
0

> <PUBCHEM_BOND_UDEF_STEREO_COUNT>
0

> <PUBCHEM_ISOTOPIC_ATOM_COUNT>
0

> <PUBCHEM_COMPONENT_COUNT>
1

> <PUBCHEM_CACTVS_TAUTO_COUNT>
3

> <PUBCHEM_CONFORMER_ID>
0001AACF00000001

> <PUBCHEM_MMFF94_ENERGY>
85.8105

> <PUBCHEM_FEATURE_SELFOVERLAP>
15.223

> <PUBCHEM_SHAPE_FINGERPRINT>
12326174 3 17679284506624385673
12423570 1 14730471372632095708
12725867 57 18410847772289877733
13024252 1 14710909630797439568
13132413 78 18413112761905937485
14128692 85 18411421747297682318
14181834 199 17754716540544673406
14817 1 17342111303044923372
15001771 113 18338524049040212003
15490181 8 17687740957927721795
16945 1 18131055026789231840
20379382 53 18263923422431287807
20511035 2 18059288872474218679
20645477 70 17974555095127842351
20711985 344 17901928769408197715
20871998 184 17543649533895553513
21296965 67 18336827494214548827
21524375 3 17033587661913206069
22112679 90 18124344668644127589
2255824 54 18194122047586260151
23388829 49 18412548742584637820
23419403 2 17054942033287443481
23552423 10 18196373847605491679
2748010 2 18339907226178246399
305870 269 17977948217495278645
430814 3 17254262939773659013
7364860 26 18265334100028809277
81228 2 18119797015521325937

> <PUBCHEM_SHAPE_MULTIPOLES>
302.82
3.85
3.16
1.18
2.4
0.99
-0.04
-2.95
-0.26
-1.45
0.83
-0.02
0.31
-0.45

> <PUBCHEM_SHAPE_SELFOVERLAP>
627.203

> <PUBCHEM_SHAPE_VOLUME>
175.1

> <PUBCHEM_COORDINATE_TYPE>
2
5
10

$$$$
