109264
  -OEChem-11232108443D

 39 39  0     1  0  0  0  0  0999 V2000
    3.6806    1.3753    0.8203 O   0  0  0  0  0  0  0  0  0  0  0  0
   -1.7120   -1.0868    0.3264 C   0  0  0  0  0  0  0  0  0  0  0  0
   -3.1997   -0.6631    0.1850 C   0  0  0  0  0  0  0  0  0  0  0  0
   -0.7657    0.1364    0.2895 C   0  0  0  0  0  0  0  0  0  0  0  0
   -3.4009    0.3738   -0.9056 C   0  0  0  0  0  0  0  0  0  0  0  0
   -2.5980    1.6263   -0.5884 C   0  0  0  0  0  0  0  0  0  0  0  0
   -1.1867    1.3655   -0.1019 C   0  0  0  0  0  0  0  0  0  0  0  0
   -1.3527   -2.0530   -0.8260 C   0  0  0  0  0  0  0  0  0  0  0  0
   -1.6140   -1.8593    1.6647 C   0  0  0  0  0  0  0  0  0  0  0  0
    0.6115   -0.1222    0.6766 C   0  0  0  0  0  0  0  0  0  0  0  0
   -0.3476    2.6224   -0.1173 C   0  0  0  0  0  0  0  0  0  0  0  0
    1.6510    0.4085    0.0386 C   0  0  0  0  0  0  0  0  0  0  0  0
    3.0753    0.1410    0.4398 C   0  0  1  0  0  0  0  0  0  0  0  0
    3.8663   -0.4640   -0.7245 C   0  0  0  0  0  0  0  0  0  0  0  0
    3.2926   -1.8007   -1.1773 C   0  0  0  0  0  0  0  0  0  0  0  0
   -3.5621   -0.2444    1.1344 H   0  0  0  0  0  0  0  0  0  0  0  0
   -3.8295   -1.5373   -0.0236 H   0  0  0  0  0  0  0  0  0  0  0  0
   -4.4634    0.6303   -0.9880 H   0  0  0  0  0  0  0  0  0  0  0  0
   -3.1012   -0.0292   -1.8797 H   0  0  0  0  0  0  0  0  0  0  0  0
   -3.1241    2.2058    0.1814 H   0  0  0  0  0  0  0  0  0  0  0  0
   -2.5687    2.2490   -1.4912 H   0  0  0  0  0  0  0  0  0  0  0  0
   -1.3708   -1.5516   -1.7997 H   0  0  0  0  0  0  0  0  0  0  0  0
   -0.3490   -2.4750   -0.6970 H   0  0  0  0  0  0  0  0  0  0  0  0
   -2.0537   -2.8944   -0.8697 H   0  0  0  0  0  0  0  0  0  0  0  0
   -2.4008   -2.6202    1.7349 H   0  0  0  0  0  0  0  0  0  0  0  0
   -0.6614   -2.3897    1.7700 H   0  0  0  0  0  0  0  0  0  0  0  0
   -1.7266   -1.1864    2.5226 H   0  0  0  0  0  0  0  0  0  0  0  0
    0.7862   -0.7500    1.5435 H   0  0  0  0  0  0  0  0  0  0  0  0
    0.0501    2.8094   -1.1196 H   0  0  0  0  0  0  0  0  0  0  0  0
    0.4655    2.6159    0.6129 H   0  0  0  0  0  0  0  0  0  0  0  0
   -0.9658    3.4858    0.1577 H   0  0  0  0  0  0  0  0  0  0  0  0
    1.5242    1.0136   -0.8545 H   0  0  0  0  0  0  0  0  0  0  0  0
    3.1285   -0.5249    1.3085 H   0  0  0  0  0  0  0  0  0  0  0  0
    3.9005    0.2312   -1.5732 H   0  0  0  0  0  0  0  0  0  0  0  0
    4.9094   -0.6009   -0.4130 H   0  0  0  0  0  0  0  0  0  0  0  0
    2.2991   -1.6884   -1.6219 H   0  0  0  0  0  0  0  0  0  0  0  0
    3.9433   -2.2464   -1.9367 H   0  0  0  0  0  0  0  0  0  0  0  0
    3.2224   -2.5031   -0.3404 H   0  0  0  0  0  0  0  0  0  0  0  0
    3.6808    1.9648    0.0465 H   0  0  0  0  0  0  0  0  0  0  0  0
  1 13  1  0  0  0  0
  1 39  1  0  0  0  0
  2  3  1  0  0  0  0
  2  4  1  0  0  0  0
  2  8  1  0  0  0  0
  2  9  1  0  0  0  0
  3  5  1  0  0  0  0
  3 16  1  0  0  0  0
  3 17  1  0  0  0  0
  4  7  2  0  0  0  0
  4 10  1  0  0  0  0
  5  6  1  0  0  0  0
  5 18  1  0  0  0  0
  5 19  1  0  0  0  0
  6  7  1  0  0  0  0
  6 20  1  0  0  0  0
  6 21  1  0  0  0  0
  7 11  1  0  0  0  0
  8 22  1  0  0  0  0
  8 23  1  0  0  0  0
  8 24  1  0  0  0  0
  9 25  1  0  0  0  0
  9 26  1  0  0  0  0
  9 27  1  0  0  0  0
 10 12  2  3  0  0  0
 10 28  1  0  0  0  0
 11 29  1  0  0  0  0
 11 30  1  0  0  0  0
 11 31  1  0  0  0  0
 12 13  1  0  0  0  0
 12 32  1  0  0  0  0
 13 14  1  0  0  0  0
 13 33  1  0  0  0  0
 14 15  1  0  0  0  0
 14 34  1  0  0  0  0
 14 35  1  0  0  0  0
 15 36  1  0  0  0  0
 15 37  1  0  0  0  0
 15 38  1  0  0  0  0
M  END
> <PUBCHEM_COMPOUND_CID>
109264

> <PUBCHEM_CONFORMER_RMSD>
0.6

> <PUBCHEM_CONFORMER_DIVERSEORDER>
6
15
3
16
1
17
10
7
11
4
5
8
9
14
2
12
13

> <PUBCHEM_MMFF94_PARTIAL_CHARGES>
12
1 -0.68
10 -0.15
11 0.14
12 -0.29
13 0.42
2 0.14
28 0.15
32 0.15
39 0.4
4 -0.14
6 0.14
7 -0.28

> <PUBCHEM_EFFECTIVE_ROTOR_COUNT>
3.8

> <PUBCHEM_PHARMACOPHORE_FEATURES>
5
1 1 acceptor
1 1 donor
1 15 hydrophobe
3 2 8 9 hydrophobe
6 2 3 4 5 6 7 rings

> <PUBCHEM_HEAVY_ATOM_COUNT>
15

> <PUBCHEM_ATOM_DEF_STEREO_COUNT>
0

> <PUBCHEM_ATOM_UDEF_STEREO_COUNT>
0

> <PUBCHEM_BOND_DEF_STEREO_COUNT>
0

> <PUBCHEM_BOND_UDEF_STEREO_COUNT>
1

> <PUBCHEM_ISOTOPIC_ATOM_COUNT>
0

> <PUBCHEM_COMPONENT_COUNT>
1

> <PUBCHEM_CACTVS_TAUTO_COUNT>
1

> <PUBCHEM_CONFORMER_ID>
0001AAD000000006

> <PUBCHEM_MMFF94_ENERGY>
30.264

> <PUBCHEM_FEATURE_SELFOVERLAP>
25.371

> <PUBCHEM_SHAPE_FINGERPRINT>
10608611 8 18413102853706665848
10922523 26 18411140251067707398
11137873 295 17845104965029526126
12186901 62 18114191787047619631
12716758 59 18335703806046935184
12824470 246 15696844069624738829
13024252 1 17168140165781739075
13296908 3 18410296942897624610
14115302 16 17458910460806235943
15163728 17 16518213160303546039
15219456 202 18272368672438907636
15375358 24 18340760529138095152
16945 1 17894914022946861241
18186145 218 18263639580542890765
19868273 293 17676486112134803804
200 152 17132110221763790430
20279233 1 18273212006647884458
20510252 161 18412260614777913233
20645476 183 17386011641398959419
20645477 56 18410007745258758681
20645477 70 17989490701964821174
20871999 31 18261116274471471597
21524375 3 17831014628814102481
22213442 358 18267298927049305561
22802520 49 18341056224588038010
23402539 116 18339908347085817028
23557571 272 18408888460218710792
23559900 14 18410849937618013712
2748010 2 17901379314574407713
4028521 119 18261948566029464461
4175511 318 17894624829813595877
69090 78 18343575244355728287
7364860 26 18051976118974300480
81228 2 18335988588275597160
9709674 26 18412544310400194318

> <PUBCHEM_SHAPE_MULTIPOLES>
302.82
6.46
2.36
1.15
5.31
0.37
0.11
-0.51
-1.29
-0.66
-0.08
0.03
-0.51
1.25

> <PUBCHEM_SHAPE_SELFOVERLAP>
598.366

> <PUBCHEM_SHAPE_VOLUME>
181.7

> <PUBCHEM_COORDINATE_TYPE>
2
5
10

$$$$
