109261
  -OEChem-11232108473D

 34 35  0     1  0  0  0  0  0999 V2000
   -1.7156    2.8880    0.5177 O   0  0  0  0  0  0  0  0  0  0  0  0
   -0.0781    0.5661    0.6219 C   0  0  1  0  0  0  0  0  0  0  0  0
    1.1203   -0.4085    0.3176 C   0  0  1  0  0  0  0  0  0  0  0  0
   -0.6054    1.1472   -0.7176 C   0  0  1  0  0  0  0  0  0  0  0  0
    0.6668   -1.4717   -0.7322 C   0  0  0  0  0  0  0  0  0  0  0  0
   -1.2157   -0.3006    1.2582 C   0  0  0  0  0  0  0  0  0  0  0  0
   -0.8540   -1.3349   -0.8761 C   0  0  0  0  0  0  0  0  0  0  0  0
   -1.1303   -0.0087   -1.5936 C   0  0  0  0  0  0  0  0  0  0  0  0
    2.3871    0.3160   -0.1298 C   0  0  0  0  0  0  0  0  0  0  0  0
   -1.4785   -1.4710    0.3191 C   0  0  0  0  0  0  0  0  0  0  0  0
   -1.6676    2.1824   -0.4844 C   0  0  0  0  0  0  0  0  0  0  0  0
    2.7911    1.3737    0.8948 C   0  0  0  0  0  0  0  0  0  0  0  0
    3.5246   -0.6785   -0.3519 C   0  0  0  0  0  0  0  0  0  0  0  0
   -1.7448   -2.7994    0.9563 C   0  0  0  0  0  0  0  0  0  0  0  0
    0.1926    1.3500    1.3346 H   0  0  0  0  0  0  0  0  0  0  0  0
    1.3507   -0.9438    1.2514 H   0  0  0  0  0  0  0  0  0  0  0  0
    0.1892    1.6712   -1.2607 H   0  0  0  0  0  0  0  0  0  0  0  0
    0.9416   -2.4831   -0.4093 H   0  0  0  0  0  0  0  0  0  0  0  0
    1.1305   -1.3136   -1.7130 H   0  0  0  0  0  0  0  0  0  0  0  0
   -2.1352    0.2722    1.4154 H   0  0  0  0  0  0  0  0  0  0  0  0
   -0.8788   -0.6623    2.2372 H   0  0  0  0  0  0  0  0  0  0  0  0
   -0.6282   -0.0038   -2.5690 H   0  0  0  0  0  0  0  0  0  0  0  0
   -2.2039    0.0759   -1.8037 H   0  0  0  0  0  0  0  0  0  0  0  0
    2.2185    0.8244   -1.0865 H   0  0  0  0  0  0  0  0  0  0  0  0
   -2.3625    2.3637   -1.3223 H   0  0  0  0  0  0  0  0  0  0  0  0
    2.8344    0.9589    1.9075 H   0  0  0  0  0  0  0  0  0  0  0  0
    3.7821    1.7787    0.6603 H   0  0  0  0  0  0  0  0  0  0  0  0
    2.1035    2.2246    0.8943 H   0  0  0  0  0  0  0  0  0  0  0  0
    3.7308   -1.2550    0.5567 H   0  0  0  0  0  0  0  0  0  0  0  0
    4.4462   -0.1535   -0.6269 H   0  0  0  0  0  0  0  0  0  0  0  0
    3.3097   -1.3841   -1.1595 H   0  0  0  0  0  0  0  0  0  0  0  0
   -2.7623   -2.8201    1.3589 H   0  0  0  0  0  0  0  0  0  0  0  0
   -1.0427   -2.9961    1.7727 H   0  0  0  0  0  0  0  0  0  0  0  0
   -1.6571   -3.6154    0.2311 H   0  0  0  0  0  0  0  0  0  0  0  0
  1 11  2  0  0  0  0
  2  3  1  0  0  0  0
  2  4  1  0  0  0  0
  2  6  1  0  0  0  0
  2 15  1  0  0  0  0
  3  5  1  0  0  0  0
  3  9  1  0  0  0  0
  3 16  1  0  0  0  0
  4  8  1  0  0  0  0
  4 11  1  0  0  0  0
  4 17  1  0  0  0  0
  5  7  1  0  0  0  0
  5 18  1  0  0  0  0
  5 19  1  0  0  0  0
  6 10  1  0  0  0  0
  6 20  1  0  0  0  0
  6 21  1  0  0  0  0
  7  8  1  0  0  0  0
  7 10  2  0  0  0  0
  8 22  1  0  0  0  0
  8 23  1  0  0  0  0
  9 12  1  0  0  0  0
  9 13  1  0  0  0  0
  9 24  1  0  0  0  0
 10 14  1  0  0  0  0
 11 25  1  0  0  0  0
 12 26  1  0  0  0  0
 12 27  1  0  0  0  0
 12 28  1  0  0  0  0
 13 29  1  0  0  0  0
 13 30  1  0  0  0  0
 13 31  1  0  0  0  0
 14 32  1  0  0  0  0
 14 33  1  0  0  0  0
 14 34  1  0  0  0  0
M  END
> <PUBCHEM_COMPOUND_CID>
109261

> <PUBCHEM_CONFORMER_RMSD>
0.6

> <PUBCHEM_CONFORMER_DIVERSEORDER>
6
8
4
10
2
3
1
9
7
5

> <PUBCHEM_MMFF94_PARTIAL_CHARGES>
10
1 -0.57
10 -0.28
11 0.45
14 0.14
25 0.06
4 0.06
5 0.14
6 0.14
7 -0.28
8 0.14

> <PUBCHEM_EFFECTIVE_ROTOR_COUNT>
3

> <PUBCHEM_PHARMACOPHORE_FEATURES>
3
1 1 acceptor
3 9 12 13 hydrophobe
8 2 3 4 5 6 7 8 10 rings

> <PUBCHEM_HEAVY_ATOM_COUNT>
14

> <PUBCHEM_ATOM_DEF_STEREO_COUNT>
0

> <PUBCHEM_ATOM_UDEF_STEREO_COUNT>
3

> <PUBCHEM_BOND_DEF_STEREO_COUNT>
0

> <PUBCHEM_BOND_UDEF_STEREO_COUNT>
0

> <PUBCHEM_ISOTOPIC_ATOM_COUNT>
0

> <PUBCHEM_COMPONENT_COUNT>
1

> <PUBCHEM_CACTVS_TAUTO_COUNT>
2

> <PUBCHEM_CONFORMER_ID>
0001AACD00000006

> <PUBCHEM_MMFF94_ENERGY>
83.0228

> <PUBCHEM_FEATURE_SELFOVERLAP>
15.223

> <PUBCHEM_SHAPE_FINGERPRINT>
1 1 17688025310500911157
10922049 32 18124601877250801061
12138202 97 18187928309391990286
12423570 1 15172984258294118735
13024252 1 15502371231600522790
14817 1 15182533078831774631
15557651 10 17465108141279018644
15906896 17 18340202994964503783
16945 1 18334860527878345891
17844478 74 18267589189945666418
19837323 101 18341037541290545796
20653085 51 17987508221953634652
21061003 4 17834953448889622840
21524375 3 18051683352528244108
22344851 341 17907855103001824643
22802520 49 18342454842239048596
23419403 2 13392932966581141342
23557571 272 18190458453673297692
25 1 17838339575420602284
2748010 2 18125150782576424278
305870 269 17686612442391226412
369184 2 17560518520762310958
430814 3 17838601271967601733
68250623 7 17983284933598888031
68419 9 17262385728147674541
81228 2 18335134332122697737

> <PUBCHEM_SHAPE_MULTIPOLES>
282.24
3.65
2.71
1.25
4.04
1.07
-0.11
-0.61
0.45
-2.06
0.39
-0.37
-0.09
0.7

> <PUBCHEM_SHAPE_SELFOVERLAP>
585.613

> <PUBCHEM_SHAPE_VOLUME>
162.6

> <PUBCHEM_COORDINATE_TYPE>
2
5
10

$$$$
