109319
  -OEChem-11232109053D

 42 42  0     1  0  0  0  0  0999 V2000
   -0.4690   -0.6579    0.0594 O   0  0  0  0  0  0  0  0  0  0  0  0
   -2.0892   -0.7589   -1.5789 O   0  0  0  0  0  0  0  0  0  0  0  0
    1.8860   -0.1145   -0.1747 C   0  0  1  0  0  0  0  0  0  0  0  0
    0.4879   -0.0617   -0.8149 C   0  0  2  0  0  0  0  0  0  0  0  0
    1.9595    0.7785    1.0731 C   0  0  0  0  0  0  0  0  0  0  0  0
    0.1450    2.2780    0.1284 C   0  0  1  0  0  0  0  0  0  0  0  0
    0.0695    1.3804   -1.1172 C   0  0  0  0  0  0  0  0  0  0  0  0
    1.5404    2.2144    0.7623 C   0  0  0  0  0  0  0  0  0  0  0  0
    2.2935   -1.5465    0.1769 C   0  0  0  0  0  0  0  0  0  0  0  0
   -0.2205    3.7190   -0.2243 C   0  0  0  0  0  0  0  0  0  0  0  0
    2.1892   -2.4478   -1.0500 C   0  0  0  0  0  0  0  0  0  0  0  0
    3.7084   -1.5742    0.7479 C   0  0  0  0  0  0  0  0  0  0  0  0
   -1.7564   -0.6892   -0.4030 C   0  0  0  0  0  0  0  0  0  0  0  0
   -2.7204   -0.6118    0.7680 C   0  0  0  0  0  0  0  0  0  0  0  0
   -3.9983    0.0976    0.3362 C   0  0  0  0  0  0  0  0  0  0  0  0
   -3.0256   -2.0054    1.3109 C   0  0  0  0  0  0  0  0  0  0  0  0
    2.5998    0.2847   -0.9101 H   0  0  0  0  0  0  0  0  0  0  0  0
    0.4909   -0.6092   -1.7646 H   0  0  0  0  0  0  0  0  0  0  0  0
    2.9784    0.8243    1.4703 H   0  0  0  0  0  0  0  0  0  0  0  0
    1.3208    0.3765    1.8696 H   0  0  0  0  0  0  0  0  0  0  0  0
   -0.5859    1.9217    0.8655 H   0  0  0  0  0  0  0  0  0  0  0  0
   -0.9398    1.4404   -1.5369 H   0  0  0  0  0  0  0  0  0  0  0  0
    0.7415    1.7816   -1.8881 H   0  0  0  0  0  0  0  0  0  0  0  0
    1.5564    2.8032    1.6874 H   0  0  0  0  0  0  0  0  0  0  0  0
    2.2780    2.6668    0.0868 H   0  0  0  0  0  0  0  0  0  0  0  0
    1.6231   -1.9533    0.9452 H   0  0  0  0  0  0  0  0  0  0  0  0
   -1.2310    3.7716   -0.6432 H   0  0  0  0  0  0  0  0  0  0  0  0
   -0.1940    4.3552    0.6666 H   0  0  0  0  0  0  0  0  0  0  0  0
    0.4739    4.1380   -0.9605 H   0  0  0  0  0  0  0  0  0  0  0  0
    2.7221   -2.0243   -1.9082 H   0  0  0  0  0  0  0  0  0  0  0  0
    2.6257   -3.4318   -0.8438 H   0  0  0  0  0  0  0  0  0  0  0  0
    1.1497   -2.6306   -1.3385 H   0  0  0  0  0  0  0  0  0  0  0  0
    4.4154   -1.0416    0.1028 H   0  0  0  0  0  0  0  0  0  0  0  0
    4.0645   -2.6063    0.8454 H   0  0  0  0  0  0  0  0  0  0  0  0
    3.7554   -1.1411    1.7514 H   0  0  0  0  0  0  0  0  0  0  0  0
   -2.2549   -0.0065    1.5558 H   0  0  0  0  0  0  0  0  0  0  0  0
   -4.6757    0.2297    1.1863 H   0  0  0  0  0  0  0  0  0  0  0  0
   -4.5319   -0.4673   -0.4364 H   0  0  0  0  0  0  0  0  0  0  0  0
   -3.7741    1.0884   -0.0743 H   0  0  0  0  0  0  0  0  0  0  0  0
   -3.7066   -1.9522    2.1664 H   0  0  0  0  0  0  0  0  0  0  0  0
   -2.1063   -2.5031    1.6378 H   0  0  0  0  0  0  0  0  0  0  0  0
   -3.4854   -2.6379    0.5435 H   0  0  0  0  0  0  0  0  0  0  0  0
  1  4  1  0  0  0  0
  1 13  1  0  0  0  0
  2 13  2  0  0  0  0
  3  4  1  0  0  0  0
  3  5  1  0  0  0  0
  3  9  1  0  0  0  0
  3 17  1  0  0  0  0
  4  7  1  0  0  0  0
  4 18  1  0  0  0  0
  5  8  1  0  0  0  0
  5 19  1  0  0  0  0
  5 20  1  0  0  0  0
  6  7  1  0  0  0  0
  6  8  1  0  0  0  0
  6 10  1  0  0  0  0
  6 21  1  0  0  0  0
  7 22  1  0  0  0  0
  7 23  1  0  0  0  0
  8 24  1  0  0  0  0
  8 25  1  0  0  0  0
  9 11  1  0  0  0  0
  9 12  1  0  0  0  0
  9 26  1  0  0  0  0
 10 27  1  0  0  0  0
 10 28  1  0  0  0  0
 10 29  1  0  0  0  0
 11 30  1  0  0  0  0
 11 31  1  0  0  0  0
 11 32  1  0  0  0  0
 12 33  1  0  0  0  0
 12 34  1  0  0  0  0
 12 35  1  0  0  0  0
 13 14  1  0  0  0  0
 14 15  1  0  0  0  0
 14 16  1  0  0  0  0
 14 36  1  0  0  0  0
 15 37  1  0  0  0  0
 15 38  1  0  0  0  0
 15 39  1  0  0  0  0
 16 40  1  0  0  0  0
 16 41  1  0  0  0  0
 16 42  1  0  0  0  0
M  END
> <PUBCHEM_COMPOUND_CID>
109319

> <PUBCHEM_CONFORMER_RMSD>
0.6

> <PUBCHEM_CONFORMER_DIVERSEORDER>
1
161
191
16
141
153
200
196
159
76
139
179
28
206
115
169
195
55
203
83
12
167
205
190
111
209
168
90
74
183
84
124
8
138
193
197
144
57
207
45
63
112
173
118
185
15
53
17
157
170
78
148
66
151
32
160
51
81
174
152
60
129
182
201
108
97
70
52
98
114
89
123
102
126
101
137
48
125
178
149
164
49
140
177
155
71
62
163
91
116
69
41
122
103
135
146
86
93
136
61
192
72
24
176
180
87
43
47
50
181
54
26
133
117
208
80
171
142
96
132
110
27
38
34
58
130
162
65
95
189
39
35
73
175
10
109
202
184
85
11
165
29
158
59
22
121
119
204
94
46
13
198
147
131
21
188
127
79
56
36
194
128
82
30
19
104
31
105
4
107
37
42
88
3
106
67
187
199
143
9
210
156
68
145
92
18
77
120
2
166
99
25
44
40
64
23
6
14
150
113
20
33
100
75
186
154
172
7
5
134

> <PUBCHEM_MMFF94_PARTIAL_CHARGES>
5
1 -0.43
13 0.66
14 0.06
2 -0.57
4 0.28

> <PUBCHEM_EFFECTIVE_ROTOR_COUNT>
5.2

> <PUBCHEM_PHARMACOPHORE_FEATURES>
4
1 2 acceptor
3 14 15 16 hydrophobe
3 9 11 12 hydrophobe
6 3 4 5 6 7 8 rings

> <PUBCHEM_HEAVY_ATOM_COUNT>
16

> <PUBCHEM_ATOM_DEF_STEREO_COUNT>
0

> <PUBCHEM_ATOM_UDEF_STEREO_COUNT>
3

> <PUBCHEM_BOND_DEF_STEREO_COUNT>
0

> <PUBCHEM_BOND_UDEF_STEREO_COUNT>
0

> <PUBCHEM_ISOTOPIC_ATOM_COUNT>
0

> <PUBCHEM_COMPONENT_COUNT>
1

> <PUBCHEM_CACTVS_TAUTO_COUNT>
1

> <PUBCHEM_CONFORMER_ID>
0001AB0700000001

> <PUBCHEM_MMFF94_ENERGY>
30.0711

> <PUBCHEM_FEATURE_SELFOVERLAP>
20.297

> <PUBCHEM_SHAPE_FINGERPRINT>
10382601 240 18269847565249085984
104564 63 18050012094838050655
1100329 8 16319492741452699179
11086676 242 18272380728201137264
12202030 40 17749101240267740931
12532896 13 17472692529727752388
12553582 1 18413103940286075118
12716301 132 17832125148411358208
12725867 57 18411708689852299788
12824470 246 17387967574106708194
14178342 30 18053652848531469651
14790565 3 18122068868976081840
14817 1 15742499442863135284
15490181 8 17405707468207571444
16945 1 18122051267856276076
17841504 4 18263652912548463643
20097449 115 18409730642832672216
20339313 130 18338812168336812186
20559304 39 18266474285170821865
20600515 1 18041000600674094742
20871998 22 18270404871657645526
21041028 32 18409733932619683713
21061003 4 18411413999319358494
21130352 189 18411980239391613409
21524375 3 17264420219574790645
2255824 54 18124322867437261693
23419403 2 18043785698387994372
23526113 38 17971162980979357605
23557571 272 18053952753946213462
23598291 2 17917428791025695103
2748010 2 18268124544739752100
305870 269 18053664960376160841
3071541 236 17615395970769902632
31174 14 18118129297364394915
576247 118 18338808818515593942
6992083 37 18060133241453893855
7364860 26 18194133038333470531
81228 2 18121780521781678272

> <PUBCHEM_SHAPE_MULTIPOLES>
317.53
5.32
3.39
1.24
2.56
2.83
0.12
-4.09
-1.6
-0.92
-0.05
0.14
-0.3
0.76

> <PUBCHEM_SHAPE_SELFOVERLAP>
621.968

> <PUBCHEM_SHAPE_VOLUME>
191.2

> <PUBCHEM_COORDINATE_TYPE>
2
5
10

$$$$
