109301
  -OEChem-11232108553D

 33 34  0     1  0  0  0  0  0999 V2000
    3.4630    1.7534    0.4322 N   0  0  0  0  0  0  0  0  0  0  0  0
   -1.1993    0.4355   -0.5079 C   0  0  1  0  0  0  0  0  0  0  0  0
    0.0809    0.7936    0.3045 C   0  0  2  0  0  0  0  0  0  0  0  0
    0.4208   -1.4902   -0.8870 C   0  0  1  0  0  0  0  0  0  0  0  0
   -0.9953   -0.9460   -1.1945 C   0  0  0  0  0  0  0  0  0  0  0  0
    1.2488    0.9071   -0.7189 C   0  0  2  0  0  0  0  0  0  0  0  0
    1.4606   -0.4689   -1.4089 C   0  0  0  0  0  0  0  0  0  0  0  0
   -2.4647    0.4522    0.3511 C   0  0  0  0  0  0  0  0  0  0  0  0
    0.5615   -1.5486    0.6246 C   0  0  0  0  0  0  0  0  0  0  0  0
    0.3839   -0.3654    1.2387 C   0  0  0  0  0  0  0  0  0  0  0  0
   -2.6244    1.8041    1.0410 C   0  0  0  0  0  0  0  0  0  0  0  0
   -3.6916    0.1323   -0.4985 C   0  0  0  0  0  0  0  0  0  0  0  0
    0.8677   -2.8398    1.2982 C   0  0  0  0  0  0  0  0  0  0  0  0
    2.4881    1.3807   -0.0747 C   0  0  0  0  0  0  0  0  0  0  0  0
   -1.3196    1.1876   -1.3013 H   0  0  0  0  0  0  0  0  0  0  0  0
   -0.0095    1.7306    0.8606 H   0  0  0  0  0  0  0  0  0  0  0  0
    0.5708   -2.4699   -1.3518 H   0  0  0  0  0  0  0  0  0  0  0  0
   -1.1314   -0.8427   -2.2780 H   0  0  0  0  0  0  0  0  0  0  0  0
   -1.7219   -1.6912   -0.8518 H   0  0  0  0  0  0  0  0  0  0  0  0
    0.9786    1.6432   -1.4879 H   0  0  0  0  0  0  0  0  0  0  0  0
    1.3462   -0.3521   -2.4942 H   0  0  0  0  0  0  0  0  0  0  0  0
    2.4756   -0.8535   -1.2431 H   0  0  0  0  0  0  0  0  0  0  0  0
   -2.4040   -0.3153    1.1332 H   0  0  0  0  0  0  0  0  0  0  0  0
    0.4456   -0.2299    2.3105 H   0  0  0  0  0  0  0  0  0  0  0  0
   -2.5327    2.6333    0.3313 H   0  0  0  0  0  0  0  0  0  0  0  0
   -3.6104    1.8814    1.5133 H   0  0  0  0  0  0  0  0  0  0  0  0
   -1.8916    1.9453    1.8407 H   0  0  0  0  0  0  0  0  0  0  0  0
   -3.7848    0.8296   -1.3385 H   0  0  0  0  0  0  0  0  0  0  0  0
   -4.6050    0.2167    0.1013 H   0  0  0  0  0  0  0  0  0  0  0  0
   -3.6781   -0.8834   -0.9020 H   0  0  0  0  0  0  0  0  0  0  0  0
    1.8223   -3.2380    0.9406 H   0  0  0  0  0  0  0  0  0  0  0  0
    0.0833   -3.5735    1.0876 H   0  0  0  0  0  0  0  0  0  0  0  0
    0.9370   -2.7234    2.3846 H   0  0  0  0  0  0  0  0  0  0  0  0
  1 14  3  0  0  0  0
  2  3  1  0  0  0  0
  2  5  1  0  0  0  0
  2  8  1  0  0  0  0
  2 15  1  0  0  0  0
  3  6  1  0  0  0  0
  3 10  1  0  0  0  0
  3 16  1  0  0  0  0
  4  5  1  0  0  0  0
  4  7  1  0  0  0  0
  4  9  1  0  0  0  0
  4 17  1  0  0  0  0
  5 18  1  0  0  0  0
  5 19  1  0  0  0  0
  6  7  1  0  0  0  0
  6 14  1  0  0  0  0
  6 20  1  0  0  0  0
  7 21  1  0  0  0  0
  7 22  1  0  0  0  0
  8 11  1  0  0  0  0
  8 12  1  0  0  0  0
  8 23  1  0  0  0  0
  9 10  2  0  0  0  0
  9 13  1  0  0  0  0
 10 24  1  0  0  0  0
 11 25  1  0  0  0  0
 11 26  1  0  0  0  0
 11 27  1  0  0  0  0
 12 28  1  0  0  0  0
 12 29  1  0  0  0  0
 12 30  1  0  0  0  0
 13 31  1  0  0  0  0
 13 32  1  0  0  0  0
 13 33  1  0  0  0  0
M  END
> <PUBCHEM_COMPOUND_CID>
109301

> <PUBCHEM_CONFORMER_RMSD>
0.6

> <PUBCHEM_CONFORMER_DIVERSEORDER>
1
6
3
2
5
4

> <PUBCHEM_MMFF94_PARTIAL_CHARGES>
9
1 -0.56
10 -0.29
13 0.14
14 0.36
24 0.15
3 0.14
4 0.14
6 0.2
9 -0.28

> <PUBCHEM_EFFECTIVE_ROTOR_COUNT>
1.8

> <PUBCHEM_PHARMACOPHORE_FEATURES>
3
1 1 acceptor
3 8 11 12 hydrophobe
8 2 3 4 5 6 7 9 10 rings

> <PUBCHEM_HEAVY_ATOM_COUNT>
14

> <PUBCHEM_ATOM_DEF_STEREO_COUNT>
0

> <PUBCHEM_ATOM_UDEF_STEREO_COUNT>
4

> <PUBCHEM_BOND_DEF_STEREO_COUNT>
0

> <PUBCHEM_BOND_UDEF_STEREO_COUNT>
0

> <PUBCHEM_ISOTOPIC_ATOM_COUNT>
0

> <PUBCHEM_COMPONENT_COUNT>
1

> <PUBCHEM_CACTVS_TAUTO_COUNT>
1

> <PUBCHEM_CONFORMER_ID>
0001AAF500000001

> <PUBCHEM_MMFF94_ENERGY>
39.3315

> <PUBCHEM_FEATURE_SELFOVERLAP>
15.223

> <PUBCHEM_SHAPE_FINGERPRINT>
10702982 57 18189886702999674898
10922049 32 18338521940432815736
12326174 3 18265338313138519175
12423570 1 14673204963045895974
12491281 212 18130515231199902612
12932764 1 18117855300110336885
13024252 1 12542341936928310212
13571099 52 18408046229394264629
14648413 74 17770801025865370021
14787075 74 17979920741724377591
14817 1 13442657027132819646
15775835 57 18410850005567539013
15906896 17 17976824508053392542
16945 1 18057907778057771406
170605 34 18343023293739789869
19837323 101 18128260188580147684
20653085 51 18058746821736915612
20653091 64 18267582403781300699
20820808 20 17417821629313042077
21061003 4 17463399525979674466
21069387 34 13840547449310739265
21524375 3 18341611559448795196
21930827 45 17972347223716752214
22344851 341 18411986861951784506
23402539 116 18128244791048733629
23419403 2 17549600310042722870
2748010 2 18043838517442191026
298252 57 17846216717144978854
305870 269 18335138661428671952
3071541 236 18118404187929127570
353137 74 18272650173206845877
430814 3 18338505434688893893
528862 383 18262788588676146563
528886 8 17489305338463651772
68250623 7 18343297110895586270
68419 9 17771590612257428063
7364860 26 18265894661758913451
81228 2 17612610211837060282
81539 233 18261106374614156189

> <PUBCHEM_SHAPE_MULTIPOLES>
283.13
4.2
2.3
1.36
2.29
0.93
-0.03
-2.64
0.19
-1.43
0.87
-0.1
0.43
-0.53

> <PUBCHEM_SHAPE_SELFOVERLAP>
587.733

> <PUBCHEM_SHAPE_VOLUME>
159

> <PUBCHEM_COORDINATE_TYPE>
2
5
10

$$$$
