109323
  -OEChem-11232108563D

 31 30  0     1  0  0  0  0  0999 V2000
    2.1154   -1.9769   -0.4128 O   0  0  0  0  0  0  0  0  0  0  0  0
   -1.9178   -0.2357    0.1636 C   0  0  0  0  0  0  0  0  0  0  0  0
   -0.4069   -0.1567    0.5302 C   0  0  0  0  0  0  0  0  0  0  0  0
    0.5393    0.4532   -0.5385 C   0  0  2  0  0  0  0  0  0  0  0  0
    2.0312    0.4398   -0.1079 C   0  0  1  0  0  0  0  0  0  0  0  0
   -2.6390   -1.3681    0.9085 C   0  0  0  0  0  0  0  0  0  0  0  0
   -2.0269   -0.5064   -1.3515 C   0  0  0  0  0  0  0  0  0  0  0  0
   -2.6229    1.0995    0.4632 C   0  0  0  0  0  0  0  0  0  0  0  0
    0.1032    1.8824   -0.9016 C   0  0  0  0  0  0  0  0  0  0  0  0
    2.2785    1.3388    1.1056 C   0  0  0  0  0  0  0  0  0  0  0  0
    2.5457   -0.9700    0.1412 C   0  0  0  0  0  0  0  0  0  0  0  0
   -0.0651   -1.1779    0.7390 H   0  0  0  0  0  0  0  0  0  0  0  0
   -0.3081    0.3821    1.4801 H   0  0  0  0  0  0  0  0  0  0  0  0
    0.4905   -0.1519   -1.4520 H   0  0  0  0  0  0  0  0  0  0  0  0
    2.6442    0.8293   -0.9317 H   0  0  0  0  0  0  0  0  0  0  0  0
   -2.5749   -1.2207    1.9923 H   0  0  0  0  0  0  0  0  0  0  0  0
   -2.1914   -2.3412    0.6777 H   0  0  0  0  0  0  0  0  0  0  0  0
   -3.7000   -1.4181    0.6398 H   0  0  0  0  0  0  0  0  0  0  0  0
   -3.0705   -0.7282   -1.6117 H   0  0  0  0  0  0  0  0  0  0  0  0
   -1.4470   -1.3924   -1.6367 H   0  0  0  0  0  0  0  0  0  0  0  0
   -1.7450    0.3166   -2.0042 H   0  0  0  0  0  0  0  0  0  0  0  0
   -3.7088    0.9903    0.3511 H   0  0  0  0  0  0  0  0  0  0  0  0
   -2.3390    1.9180   -0.1971 H   0  0  0  0  0  0  0  0  0  0  0  0
   -2.4389    1.4162    1.4960 H   0  0  0  0  0  0  0  0  0  0  0  0
   -0.1274    2.4765   -0.0113 H   0  0  0  0  0  0  0  0  0  0  0  0
   -0.7417    1.9350   -1.5854 H   0  0  0  0  0  0  0  0  0  0  0  0
    0.9161    2.3985   -1.4274 H   0  0  0  0  0  0  0  0  0  0  0  0
    1.7648    0.9722    1.9995 H   0  0  0  0  0  0  0  0  0  0  0  0
    1.9804    2.3751    0.9263 H   0  0  0  0  0  0  0  0  0  0  0  0
    3.3478    1.3526    1.3483 H   0  0  0  0  0  0  0  0  0  0  0  0
    3.4282   -1.0426    0.8006 H   0  0  0  0  0  0  0  0  0  0  0  0
  1 11  2  0  0  0  0
  2  3  1  0  0  0  0
  2  6  1  0  0  0  0
  2  7  1  0  0  0  0
  2  8  1  0  0  0  0
  3  4  1  0  0  0  0
  3 12  1  0  0  0  0
  3 13  1  0  0  0  0
  4  5  1  0  0  0  0
  4  9  1  0  0  0  0
  4 14  1  0  0  0  0
  5 10  1  0  0  0  0
  5 11  1  0  0  0  0
  5 15  1  0  0  0  0
  6 16  1  0  0  0  0
  6 17  1  0  0  0  0
  6 18  1  0  0  0  0
  7 19  1  0  0  0  0
  7 20  1  0  0  0  0
  7 21  1  0  0  0  0
  8 22  1  0  0  0  0
  8 23  1  0  0  0  0
  8 24  1  0  0  0  0
  9 25  1  0  0  0  0
  9 26  1  0  0  0  0
  9 27  1  0  0  0  0
 10 28  1  0  0  0  0
 10 29  1  0  0  0  0
 10 30  1  0  0  0  0
 11 31  1  0  0  0  0
M  END
> <PUBCHEM_COMPOUND_CID>
109323

> <PUBCHEM_CONFORMER_RMSD>
0.6

> <PUBCHEM_CONFORMER_DIVERSEORDER>
3
7
8
5
6
4
1
2

> <PUBCHEM_MMFF94_PARTIAL_CHARGES>
4
1 -0.57
11 0.45
31 0.06
5 0.06

> <PUBCHEM_EFFECTIVE_ROTOR_COUNT>
4

> <PUBCHEM_PHARMACOPHORE_FEATURES>
5
1 1 acceptor
1 10 hydrophobe
1 9 hydrophobe
4 2 3 4 5 hydrophobe
4 2 6 7 8 hydrophobe

> <PUBCHEM_HEAVY_ATOM_COUNT>
11

> <PUBCHEM_ATOM_DEF_STEREO_COUNT>
0

> <PUBCHEM_ATOM_UDEF_STEREO_COUNT>
2

> <PUBCHEM_BOND_DEF_STEREO_COUNT>
0

> <PUBCHEM_BOND_UDEF_STEREO_COUNT>
0

> <PUBCHEM_ISOTOPIC_ATOM_COUNT>
0

> <PUBCHEM_COMPONENT_COUNT>
1

> <PUBCHEM_CACTVS_TAUTO_COUNT>
2

> <PUBCHEM_CONFORMER_ID>
0001AB0B00000003

> <PUBCHEM_MMFF94_ENERGY>
34.2329

> <PUBCHEM_FEATURE_SELFOVERLAP>
25.611

> <PUBCHEM_SHAPE_FINGERPRINT>
12524768 44 18335693927622121790
12932764 1 17846222197407307665
14577589 140 18130227030172472943
15310529 11 18202004369220485083
15775835 57 17560242551711978481
16945 1 18198619028457887808
17990270 104 18042132105528887682
18511873 20 17915461584334899113
20082192 1 17677050269032141869
20201158 50 18335698295820490450
20653091 64 17459756019265121936
20711983 138 18187929421867576171
20711985 344 17533765023325495324
20715346 28 18408884057439064265
207724 885 18188503367195971817
23552423 10 18041007244956664387
2748010 2 18334576836767212279
29004967 10 18334293210043469760
3248919 1 18260542363777399757
369184 2 17918274277023576297
5084963 1 17096083739721642937
8030462 33 18342741848785548413
81228 2 18042954398514370245

> <PUBCHEM_SHAPE_MULTIPOLES>
220.51
4.45
1.8
1.13
0.28
0.06
-0.09
0.95
0.84
-0.51
-0.1
0.27
-0.1
0.41

> <PUBCHEM_SHAPE_SELFOVERLAP>
409.38

> <PUBCHEM_SHAPE_VOLUME>
140.1

> <PUBCHEM_COORDINATE_TYPE>
2
5
10

$$$$
