10931630
  -OEChem-11232109193D

 27 28  0     1  0  0  0  0  0999 V2000
   -2.6442    0.5956   -0.7366 O   0  0  0  0  0  0  0  0  0  0  0  0
    1.3241   -0.1236   -0.3906 C   0  0  0  0  0  0  0  0  0  0  0  0
    0.8644    1.2159    0.2618 C   0  0  2  0  0  0  0  0  0  0  0  0
    0.4750   -0.8033    0.7294 C   0  0  1  0  0  0  0  0  0  0  0  0
    0.8997    0.4242    1.6036 C   0  0  0  0  0  0  0  0  0  0  0  0
   -0.5462    1.6307   -0.1797 C   0  0  0  0  0  0  0  0  0  0  0  0
   -0.9859   -0.7968    0.3829 C   0  0  0  0  0  0  0  0  0  0  0  0
   -1.6005    0.5798    0.2308 C   0  0  2  0  0  0  0  0  0  0  0  0
    2.8230   -0.3755   -0.2357 C   0  0  0  0  0  0  0  0  0  0  0  0
    1.0000   -0.3819   -1.8445 C   0  0  0  0  0  0  0  0  0  0  0  0
   -1.6094   -1.9649    0.1785 C   0  0  0  0  0  0  0  0  0  0  0  0
    1.5790    2.0423    0.1883 H   0  0  0  0  0  0  0  0  0  0  0  0
    0.8443   -1.7668    1.0969 H   0  0  0  0  0  0  0  0  0  0  0  0
    0.1811    0.7470    2.3659 H   0  0  0  0  0  0  0  0  0  0  0  0
    1.8654    0.3549    2.1129 H   0  0  0  0  0  0  0  0  0  0  0  0
   -0.5724    1.8337   -1.2571 H   0  0  0  0  0  0  0  0  0  0  0  0
   -0.8088    2.5837    0.2974 H   0  0  0  0  0  0  0  0  0  0  0  0
   -2.0304    0.8769    1.1958 H   0  0  0  0  0  0  0  0  0  0  0  0
    3.3961    0.2884   -0.8943 H   0  0  0  0  0  0  0  0  0  0  0  0
    3.2217   -0.2272    0.7702 H   0  0  0  0  0  0  0  0  0  0  0  0
    3.0711   -1.4070   -0.5140 H   0  0  0  0  0  0  0  0  0  0  0  0
    1.2622   -1.4071   -2.1312 H   0  0  0  0  0  0  0  0  0  0  0  0
   -0.0583   -0.2557   -2.0880 H   0  0  0  0  0  0  0  0  0  0  0  0
    1.5554    0.2990   -2.4998 H   0  0  0  0  0  0  0  0  0  0  0  0
   -2.6582   -2.0076   -0.0935 H   0  0  0  0  0  0  0  0  0  0  0  0
   -1.0887   -2.9115    0.2814 H   0  0  0  0  0  0  0  0  0  0  0  0
   -3.4109    0.1373   -0.3525 H   0  0  0  0  0  0  0  0  0  0  0  0
  1  8  1  0  0  0  0
  1 27  1  0  0  0  0
  2  3  1  0  0  0  0
  2  4  1  0  0  0  0
  2  9  1  0  0  0  0
  2 10  1  0  0  0  0
  3  5  1  0  0  0  0
  3  6  1  0  0  0  0
  3 12  1  0  0  0  0
  4  5  1  0  0  0  0
  4  7  1  0  0  0  0
  4 13  1  0  0  0  0
  5 14  1  0  0  0  0
  5 15  1  0  0  0  0
  6  8  1  0  0  0  0
  6 16  1  0  0  0  0
  6 17  1  0  0  0  0
  7  8  1  0  0  0  0
  7 11  2  0  0  0  0
  8 18  1  0  0  0  0
  9 19  1  0  0  0  0
  9 20  1  0  0  0  0
  9 21  1  0  0  0  0
 10 22  1  0  0  0  0
 10 23  1  0  0  0  0
 10 24  1  0  0  0  0
 11 25  1  0  0  0  0
 11 26  1  0  0  0  0
M  END
> <PUBCHEM_COMPOUND_CID>
10931630

> <PUBCHEM_CONFORMER_RMSD>
0.4

> <PUBCHEM_CONFORMER_DIVERSEORDER>
1

> <PUBCHEM_MMFF94_PARTIAL_CHARGES>
8
1 -0.68
11 -0.3
25 0.15
26 0.15
27 0.4
4 0.12
7 -0.25
8 0.42

> <PUBCHEM_EFFECTIVE_ROTOR_COUNT>
0.8

> <PUBCHEM_PHARMACOPHORE_FEATURES>
4
1 1 acceptor
1 1 donor
3 2 9 10 hydrophobe
7 2 3 4 5 6 7 8 rings

> <PUBCHEM_HEAVY_ATOM_COUNT>
11

> <PUBCHEM_ATOM_DEF_STEREO_COUNT>
3

> <PUBCHEM_ATOM_UDEF_STEREO_COUNT>
0

> <PUBCHEM_BOND_DEF_STEREO_COUNT>
0

> <PUBCHEM_BOND_UDEF_STEREO_COUNT>
0

> <PUBCHEM_ISOTOPIC_ATOM_COUNT>
0

> <PUBCHEM_COMPONENT_COUNT>
1

> <PUBCHEM_CACTVS_TAUTO_COUNT>
1

> <PUBCHEM_CONFORMER_ID>
00A6CDAE00000001

> <PUBCHEM_MMFF94_ENERGY>
40.0332

> <PUBCHEM_FEATURE_SELFOVERLAP>
20.297

> <PUBCHEM_SHAPE_FINGERPRINT>
12138202 97 18410293596922987526
12423570 1 16230224736391034954
12716758 59 18337678503450832338
13024252 1 15436853648894309270
137420 1 11161677566431312928
15207287 21 17916291771380145990
16945 1 18411422769758316208
20653085 51 16661797442971201646
21040471 1 18262224526537101321
21922407 69 15430320290730550729
23552423 10 18042126608171280386
23559900 14 18411699851780204386
2748010 2 18265891547928547529
29004967 10 16988853747884589514
369184 2 18336559235157955146
5084963 1 17984986143968847778
68250623 7 18264773349177784304

> <PUBCHEM_SHAPE_MULTIPOLES>
220.51
2.84
1.57
1.3
0.05
0.09
0.16
0.39
0.49
-0.67
-0.05
0.38
0.04
0.37

> <PUBCHEM_SHAPE_SELFOVERLAP>
462.025

> <PUBCHEM_SHAPE_VOLUME>
128.3

> <PUBCHEM_COORDINATE_TYPE>
2
5
10

$$$$
