109417
  -OEChem-11232108463D

 30 30  0     1  0  0  0  0  0999 V2000
   -2.5255    0.1877   -1.1742 O   0  0  0  0  0  0  0  0  0  0  0  0
   -0.0984    1.1157   -0.0942 C   0  0  2  0  0  0  0  0  0  0  0  0
   -0.7423   -0.2081    0.3647 C   0  0  2  0  0  0  0  0  0  0  0  0
    1.3846    1.1882    0.3684 C   0  0  1  0  0  0  0  0  0  0  0  0
    0.0310   -1.4239   -0.1652 C   0  0  0  0  0  0  0  0  0  0  0  0
    1.5219   -1.3024   -0.0177 C   0  0  0  0  0  0  0  0  0  0  0  0
    2.1160   -0.1262    0.2390 C   0  0  0  0  0  0  0  0  0  0  0  0
   -0.8897    2.3241    0.4312 C   0  0  0  0  0  0  0  0  0  0  0  0
    2.1554    2.2678   -0.4027 C   0  0  0  0  0  0  0  0  0  0  0  0
   -2.1576   -0.3306   -0.1211 C   0  0  0  0  0  0  0  0  0  0  0  0
    2.3080   -2.5714   -0.1706 C   0  0  0  0  0  0  0  0  0  0  0  0
   -3.1034   -1.1209    0.7423 C   0  0  0  0  0  0  0  0  0  0  0  0
   -0.1237    1.1578   -1.1929 H   0  0  0  0  0  0  0  0  0  0  0  0
   -0.7517   -0.2265    1.4631 H   0  0  0  0  0  0  0  0  0  0  0  0
    1.4121    1.4561    1.4334 H   0  0  0  0  0  0  0  0  0  0  0  0
   -0.1992   -1.5960   -1.2252 H   0  0  0  0  0  0  0  0  0  0  0  0
   -0.3124   -2.3162    0.3743 H   0  0  0  0  0  0  0  0  0  0  0  0
    3.1954   -0.0995    0.3734 H   0  0  0  0  0  0  0  0  0  0  0  0
   -0.4549    3.2665    0.0859 H   0  0  0  0  0  0  0  0  0  0  0  0
   -1.9286    2.3184    0.0894 H   0  0  0  0  0  0  0  0  0  0  0  0
   -0.8991    2.3400    1.5265 H   0  0  0  0  0  0  0  0  0  0  0  0
    3.2033    2.3079   -0.0831 H   0  0  0  0  0  0  0  0  0  0  0  0
    2.1433    2.0730   -1.4811 H   0  0  0  0  0  0  0  0  0  0  0  0
    1.7332    3.2624   -0.2333 H   0  0  0  0  0  0  0  0  0  0  0  0
    3.3857   -2.4053   -0.0699 H   0  0  0  0  0  0  0  0  0  0  0  0
    2.1297   -3.0104   -1.1576 H   0  0  0  0  0  0  0  0  0  0  0  0
    2.0099   -3.2977    0.5925 H   0  0  0  0  0  0  0  0  0  0  0  0
   -2.7514   -2.1507    0.8361 H   0  0  0  0  0  0  0  0  0  0  0  0
   -3.1772   -0.6551    1.7282 H   0  0  0  0  0  0  0  0  0  0  0  0
   -4.0964   -1.1301    0.2841 H   0  0  0  0  0  0  0  0  0  0  0  0
  1 10  2  0  0  0  0
  2  3  1  0  0  0  0
  2  4  1  0  0  0  0
  2  8  1  0  0  0  0
  2 13  1  0  0  0  0
  3  5  1  0  0  0  0
  3 10  1  0  0  0  0
  3 14  1  0  0  0  0
  4  7  1  0  0  0  0
  4  9  1  0  0  0  0
  4 15  1  0  0  0  0
  5  6  1  0  0  0  0
  5 16  1  0  0  0  0
  5 17  1  0  0  0  0
  6  7  2  0  0  0  0
  6 11  1  0  0  0  0
  7 18  1  0  0  0  0
  8 19  1  0  0  0  0
  8 20  1  0  0  0  0
  8 21  1  0  0  0  0
  9 22  1  0  0  0  0
  9 23  1  0  0  0  0
  9 24  1  0  0  0  0
 10 12  1  0  0  0  0
 11 25  1  0  0  0  0
 11 26  1  0  0  0  0
 11 27  1  0  0  0  0
 12 28  1  0  0  0  0
 12 29  1  0  0  0  0
 12 30  1  0  0  0  0
M  END
> <PUBCHEM_COMPOUND_CID>
109417

> <PUBCHEM_CONFORMER_RMSD>
0.4

> <PUBCHEM_CONFORMER_DIVERSEORDER>
2
28
32
21
41
19
44
23
11
39
18
20
9
37
7
16
45
43
40
14
42
25
24
3
4
33
13
26
10
36
8
15
5
1
12
6
31
22
30
27
35
17
38
29
34

> <PUBCHEM_MMFF94_PARTIAL_CHARGES>
10
1 -0.57
10 0.45
11 0.14
12 0.06
18 0.15
3 0.06
4 0.14
5 0.14
6 -0.28
7 -0.29

> <PUBCHEM_EFFECTIVE_ROTOR_COUNT>
1.8

> <PUBCHEM_PHARMACOPHORE_FEATURES>
2
1 1 acceptor
6 2 3 4 5 6 7 rings

> <PUBCHEM_HEAVY_ATOM_COUNT>
12

> <PUBCHEM_ATOM_DEF_STEREO_COUNT>
0

> <PUBCHEM_ATOM_UDEF_STEREO_COUNT>
3

> <PUBCHEM_BOND_DEF_STEREO_COUNT>
0

> <PUBCHEM_BOND_UDEF_STEREO_COUNT>
0

> <PUBCHEM_ISOTOPIC_ATOM_COUNT>
0

> <PUBCHEM_COMPONENT_COUNT>
1

> <PUBCHEM_CACTVS_TAUTO_COUNT>
3

> <PUBCHEM_CONFORMER_ID>
0001AB6900000002

> <PUBCHEM_MMFF94_ENERGY>
17.1107

> <PUBCHEM_FEATURE_SELFOVERLAP>
10.148

> <PUBCHEM_SHAPE_FINGERPRINT>
1 1 18266460004209351460
12423570 1 11420943980208348589
13380535 220 18122346778907507316
14817 1 13298881515161454732
15219456 202 18260264192004962695
16945 1 18412261748617143282
17990270 104 18408881815297486666
193761 8 18339366240804017712
19973954 147 18337391539252612345
20201158 50 18335412469952075771
20511035 2 18057313994565923212
20588541 1 18045507670888104883
20645476 183 17463982624204806500
20645477 70 18337101354699930215
20711985 344 17689143514005746482
20871998 184 17697594386088731318
21040471 1 17907011038806819016
21501502 16 18268151963467928856
2334 1 17907293613353121202
23419403 2 16752046379375939888
23552423 10 18409451362304759297
23559900 14 17477762387178121998
241688 4 17977663113355254888
2748010 2 18124869067340150718
528862 383 18263641934211082890
528886 8 18124315166566402096
7364860 26 18341896303190614426
81228 2 17619909457327625106

> <PUBCHEM_SHAPE_MULTIPOLES>
241.09
3.93
2.74
0.8
1.83
0.29
0.07
-1.15
0.04
-1.78
0.01
0.31
0.04
0.11

> <PUBCHEM_SHAPE_SELFOVERLAP>
477.408

> <PUBCHEM_SHAPE_VOLUME>
143.7

> <PUBCHEM_COORDINATE_TYPE>
2
5
10

$$$$
