109458
  -OEChem-11232109433D

 29 29  0     1  0  0  0  0  0999 V2000
   -2.5416   -0.8245    1.4137 O   0  0  0  0  0  0  0  0  0  0  0  0
   -1.1017    0.0385   -0.2860 C   0  0  1  0  0  0  0  0  0  0  0  0
   -0.1921    1.2028   -0.7499 C   0  0  2  0  0  0  0  0  0  0  0  0
   -0.3370   -1.3105   -0.3829 C   0  0  2  0  0  0  0  0  0  0  0  0
    1.1067    1.2776    0.0745 C   0  0  0  0  0  0  0  0  0  0  0  0
    1.7331   -0.0669    0.3483 C   0  0  0  0  0  0  0  0  0  0  0  0
    1.0796   -1.2210    0.1289 C   0  0  0  0  0  0  0  0  0  0  0  0
   -1.6540    0.2379    1.1351 C   0  0  0  0  0  0  0  0  0  0  0  0
   -0.9038    2.5571   -0.7552 C   0  0  0  0  0  0  0  0  0  0  0  0
   -0.3209   -1.8488   -1.8180 C   0  0  0  0  0  0  0  0  0  0  0  0
    3.1317   -0.0422    0.8914 C   0  0  0  0  0  0  0  0  0  0  0  0
   -1.9690   -0.0178   -0.9589 H   0  0  0  0  0  0  0  0  0  0  0  0
    0.0909    1.0028   -1.7926 H   0  0  0  0  0  0  0  0  0  0  0  0
   -0.8519   -2.0663    0.2228 H   0  0  0  0  0  0  0  0  0  0  0  0
    0.9185    1.7717    1.0362 H   0  0  0  0  0  0  0  0  0  0  0  0
    1.8233    1.9072   -0.4684 H   0  0  0  0  0  0  0  0  0  0  0  0
    1.5787   -2.1656    0.3328 H   0  0  0  0  0  0  0  0  0  0  0  0
   -2.2185    1.1708    1.2144 H   0  0  0  0  0  0  0  0  0  0  0  0
   -0.8635    0.2409    1.8914 H   0  0  0  0  0  0  0  0  0  0  0  0
   -0.2748    3.3153   -1.2344 H   0  0  0  0  0  0  0  0  0  0  0  0
   -1.8431    2.5010   -1.3148 H   0  0  0  0  0  0  0  0  0  0  0  0
   -1.1259    2.9095    0.2567 H   0  0  0  0  0  0  0  0  0  0  0  0
   -1.3409   -1.9632   -2.2003 H   0  0  0  0  0  0  0  0  0  0  0  0
    0.2247   -1.1886   -2.5005 H   0  0  0  0  0  0  0  0  0  0  0  0
    0.1579   -2.8340   -1.8594 H   0  0  0  0  0  0  0  0  0  0  0  0
    3.8069    0.4436    0.1797 H   0  0  0  0  0  0  0  0  0  0  0  0
    3.5186   -1.0483    1.0844 H   0  0  0  0  0  0  0  0  0  0  0  0
    3.1618    0.5129    1.8345 H   0  0  0  0  0  0  0  0  0  0  0  0
   -2.8849   -0.6854    2.3128 H   0  0  0  0  0  0  0  0  0  0  0  0
  1  8  1  0  0  0  0
  1 29  1  0  0  0  0
  2  3  1  0  0  0  0
  2  4  1  0  0  0  0
  2  8  1  0  0  0  0
  2 12  1  0  0  0  0
  3  5  1  0  0  0  0
  3  9  1  0  0  0  0
  3 13  1  0  0  0  0
  4  7  1  0  0  0  0
  4 10  1  0  0  0  0
  4 14  1  0  0  0  0
  5  6  1  0  0  0  0
  5 15  1  0  0  0  0
  5 16  1  0  0  0  0
  6  7  2  0  0  0  0
  6 11  1  0  0  0  0
  7 17  1  0  0  0  0
  8 18  1  0  0  0  0
  8 19  1  0  0  0  0
  9 20  1  0  0  0  0
  9 21  1  0  0  0  0
  9 22  1  0  0  0  0
 10 23  1  0  0  0  0
 10 24  1  0  0  0  0
 10 25  1  0  0  0  0
 11 26  1  0  0  0  0
 11 27  1  0  0  0  0
 11 28  1  0  0  0  0
M  END
> <PUBCHEM_COMPOUND_CID>
109458

> <PUBCHEM_CONFORMER_RMSD>
0.4

> <PUBCHEM_CONFORMER_DIVERSEORDER>
1
2
18
16
19
14
15
11
3
5
13
7
8
9
10
17
6
12
4

> <PUBCHEM_MMFF94_PARTIAL_CHARGES>
9
1 -0.68
11 0.14
17 0.15
29 0.4
4 0.14
5 0.14
6 -0.28
7 -0.29
8 0.28

> <PUBCHEM_EFFECTIVE_ROTOR_COUNT>
1.8

> <PUBCHEM_PHARMACOPHORE_FEATURES>
3
1 1 acceptor
1 1 donor
6 2 3 4 5 6 7 rings

> <PUBCHEM_HEAVY_ATOM_COUNT>
11

> <PUBCHEM_ATOM_DEF_STEREO_COUNT>
0

> <PUBCHEM_ATOM_UDEF_STEREO_COUNT>
3

> <PUBCHEM_BOND_DEF_STEREO_COUNT>
0

> <PUBCHEM_BOND_UDEF_STEREO_COUNT>
0

> <PUBCHEM_ISOTOPIC_ATOM_COUNT>
0

> <PUBCHEM_COMPONENT_COUNT>
1

> <PUBCHEM_CACTVS_TAUTO_COUNT>
1

> <PUBCHEM_CONFORMER_ID>
0001AB9200000001

> <PUBCHEM_MMFF94_ENERGY>
16.3026

> <PUBCHEM_FEATURE_SELFOVERLAP>
15.223

> <PUBCHEM_SHAPE_FINGERPRINT>
12423570 1 11840836754765062288
13024252 1 17241588577287717982
137420 1 8411273599099335812
14817 1 14366402358174514703
15219459 28 17975413516828124231
16945 1 18260833644190820992
18185500 45 17836071652199220734
20511035 2 17976809888132117702
20871998 184 18410847738046183940
21930827 45 17538865584609716701
23211744 25 16320073283201742436
23211744 41 17325187555740774300
241688 4 18051104163514135232
2748010 2 18125433108262601708
5084963 1 17987498403705712750
528862 383 17608946608870270832
68419 9 17336481099299279175

> <PUBCHEM_SHAPE_MULTIPOLES>
220.51
2.93
2.17
1.38
1.8
0.54
-0.02
0.13
1.57
-0.72
-1.05
-0.69
-0.47
0.36

> <PUBCHEM_SHAPE_SELFOVERLAP>
431.24

> <PUBCHEM_SHAPE_VOLUME>
132.7

> <PUBCHEM_COORDINATE_TYPE>
2
5
10

$$$$
