109420
  -OEChem-11232108523D

 39 39  0     1  0  0  0  0  0999 V2000
   -2.9407   -1.2419    0.8504 O   0  0  0  0  0  0  0  0  0  0  0  0
    2.1727   -0.9644   -0.2869 C   0  0  0  0  0  0  0  0  0  0  0  0
    0.9249   -0.0696   -0.6170 C   0  0  1  0  0  0  0  0  0  0  0  0
    2.6305   -0.6984    1.1661 C   0  0  0  0  0  0  0  0  0  0  0  0
   -0.3861   -0.5872   -0.0010 C   0  0  0  0  0  0  0  0  0  0  0  0
    1.1286    1.3818   -0.1949 C   0  0  0  0  0  0  0  0  0  0  0  0
    2.9398    0.7742    1.4418 C   0  0  0  0  0  0  0  0  0  0  0  0
    3.3221   -0.6391   -1.2727 C   0  0  0  0  0  0  0  0  0  0  0  0
    1.8656   -2.4678   -0.4415 C   0  0  0  0  0  0  0  0  0  0  0  0
    2.0346    1.7355    0.7341 C   0  0  0  0  0  0  0  0  0  0  0  0
   -1.5749    0.2114   -0.5086 C   0  0  0  0  0  0  0  0  0  0  0  0
    0.2928    2.4190   -0.8933 C   0  0  0  0  0  0  0  0  0  0  0  0
   -2.8868   -0.2854    0.0791 C   0  0  0  0  0  0  0  0  0  0  0  0
   -4.1274    0.4805   -0.3502 C   0  0  0  0  0  0  0  0  0  0  0  0
   -5.3957   -0.0487    0.2947 C   0  0  0  0  0  0  0  0  0  0  0  0
    0.8097   -0.0914   -1.7106 H   0  0  0  0  0  0  0  0  0  0  0  0
    3.5152   -1.3010    1.4087 H   0  0  0  0  0  0  0  0  0  0  0  0
    1.8467   -1.0255    1.8621 H   0  0  0  0  0  0  0  0  0  0  0  0
   -0.3470   -0.5513    1.0949 H   0  0  0  0  0  0  0  0  0  0  0  0
   -0.5537   -1.6338   -0.2763 H   0  0  0  0  0  0  0  0  0  0  0  0
    3.9714    0.9928    1.1403 H   0  0  0  0  0  0  0  0  0  0  0  0
    2.8861    0.9542    2.5218 H   0  0  0  0  0  0  0  0  0  0  0  0
    4.2234   -1.2126   -1.0273 H   0  0  0  0  0  0  0  0  0  0  0  0
    3.0374   -0.8956   -2.2998 H   0  0  0  0  0  0  0  0  0  0  0  0
    3.5981    0.4195   -1.2688 H   0  0  0  0  0  0  0  0  0  0  0  0
    1.4260   -2.6828   -1.4217 H   0  0  0  0  0  0  0  0  0  0  0  0
    2.7804   -3.0657   -0.3512 H   0  0  0  0  0  0  0  0  0  0  0  0
    1.1801   -2.8299    0.3317 H   0  0  0  0  0  0  0  0  0  0  0  0
    2.1544    2.7859    0.9882 H   0  0  0  0  0  0  0  0  0  0  0  0
   -1.6501    0.1745   -1.5996 H   0  0  0  0  0  0  0  0  0  0  0  0
   -1.5598    1.2356   -0.1507 H   0  0  0  0  0  0  0  0  0  0  0  0
   -0.4364    2.8801   -0.2210 H   0  0  0  0  0  0  0  0  0  0  0  0
   -0.1946    2.0420   -1.7965 H   0  0  0  0  0  0  0  0  0  0  0  0
    0.9467    3.2301   -1.2396 H   0  0  0  0  0  0  0  0  0  0  0  0
   -4.2125    0.4087   -1.4395 H   0  0  0  0  0  0  0  0  0  0  0  0
   -3.9929    1.5324   -0.0775 H   0  0  0  0  0  0  0  0  0  0  0  0
   -6.2628    0.5299   -0.0384 H   0  0  0  0  0  0  0  0  0  0  0  0
   -5.5629   -1.0981    0.0305 H   0  0  0  0  0  0  0  0  0  0  0  0
   -5.3389    0.0174    1.3862 H   0  0  0  0  0  0  0  0  0  0  0  0
  1 13  2  0  0  0  0
  2  3  1  0  0  0  0
  2  4  1  0  0  0  0
  2  8  1  0  0  0  0
  2  9  1  0  0  0  0
  3  5  1  0  0  0  0
  3  6  1  0  0  0  0
  3 16  1  0  0  0  0
  4  7  1  0  0  0  0
  4 17  1  0  0  0  0
  4 18  1  0  0  0  0
  5 11  1  0  0  0  0
  5 19  1  0  0  0  0
  5 20  1  0  0  0  0
  6 10  2  0  0  0  0
  6 12  1  0  0  0  0
  7 10  1  0  0  0  0
  7 21  1  0  0  0  0
  7 22  1  0  0  0  0
  8 23  1  0  0  0  0
  8 24  1  0  0  0  0
  8 25  1  0  0  0  0
  9 26  1  0  0  0  0
  9 27  1  0  0  0  0
  9 28  1  0  0  0  0
 10 29  1  0  0  0  0
 11 13  1  0  0  0  0
 11 30  1  0  0  0  0
 11 31  1  0  0  0  0
 12 32  1  0  0  0  0
 12 33  1  0  0  0  0
 12 34  1  0  0  0  0
 13 14  1  0  0  0  0
 14 15  1  0  0  0  0
 14 35  1  0  0  0  0
 14 36  1  0  0  0  0
 15 37  1  0  0  0  0
 15 38  1  0  0  0  0
 15 39  1  0  0  0  0
M  END
> <PUBCHEM_COMPOUND_CID>
109420

> <PUBCHEM_CONFORMER_RMSD>
0.6

> <PUBCHEM_CONFORMER_DIVERSEORDER>
1
40
39
31
18
13
45
27
26
44
41
34
5
28
32
37
30
20
43
16
42
9
4
35
33
19
8
21
10
14
6
22
12
23
17
29
24
15
25
38
7
11
36
3
2

> <PUBCHEM_MMFF94_PARTIAL_CHARGES>
10
1 -0.57
10 -0.29
11 0.06
12 0.14
13 0.45
14 0.06
29 0.15
3 0.14
6 -0.28
7 0.14

> <PUBCHEM_EFFECTIVE_ROTOR_COUNT>
4.8

> <PUBCHEM_PHARMACOPHORE_FEATURES>
4
1 1 acceptor
1 15 hydrophobe
3 2 8 9 hydrophobe
6 2 3 4 6 7 10 rings

> <PUBCHEM_HEAVY_ATOM_COUNT>
15

> <PUBCHEM_ATOM_DEF_STEREO_COUNT>
0

> <PUBCHEM_ATOM_UDEF_STEREO_COUNT>
1

> <PUBCHEM_BOND_DEF_STEREO_COUNT>
0

> <PUBCHEM_BOND_UDEF_STEREO_COUNT>
0

> <PUBCHEM_ISOTOPIC_ATOM_COUNT>
0

> <PUBCHEM_COMPONENT_COUNT>
1

> <PUBCHEM_CACTVS_TAUTO_COUNT>
3

> <PUBCHEM_CONFORMER_ID>
0001AB6C00000001

> <PUBCHEM_MMFF94_ENERGY>
32.2294

> <PUBCHEM_FEATURE_SELFOVERLAP>
20.297

> <PUBCHEM_SHAPE_FINGERPRINT>
11067466 332 18259982656956849134
12346645 6 18343015627328648468
12616999 72 18040729047119434022
12654215 9 18410573989689213028
12725867 57 18410297986622241468
13922767 16 18413102862217199841
14178342 30 18267853055308946387
14252887 29 18408884018636665803
15501101 241 18343860005040468484
15848700 24 18409725136684780909
161256 15 18341609274889976364
16945 1 18201144503993661276
18186145 218 18413388731214492615
18522853 295 17748824103313163291
19049666 15 18192419771642281197
19422 9 13118278140718081941
20279233 1 18408321099080545643
20559304 39 18411986866394431821
20645477 70 18060421304910384791
20871998 22 18337668603482493852
21524375 3 17250908321091725324
21730867 7 17918274281075943978
22892500 29 17561356305477902832
23048698 100 17132115745086601331
23526113 38 17823151050379863994
23559900 14 18408890663457500655
2748010 2 17982712105431565396
3060560 45 18131635560571372086
54040823 5 16298679334093918558
5939293 188 18263078971468153428
7364860 26 18202004347608589428
81228 2 18044940069232387997
9971528 1 18341892974506759045

> <PUBCHEM_SHAPE_MULTIPOLES>
302.82
7.71
2.04
1.16
12.37
0.26
-0.13
-1.13
-1.11
-1.52
0.29
-0.91
0.11
0.78

> <PUBCHEM_SHAPE_SELFOVERLAP>
595.634

> <PUBCHEM_SHAPE_VOLUME>
180.8

> <PUBCHEM_COORDINATE_TYPE>
2
5
10

$$$$
