109468
  -OEChem-11232109173D

 45 45  0     1  0  0  0  0  0999 V2000
   -3.6541   -0.0259   -0.5342 O   0  0  0  0  0  0  0  0  0  0  0  0
   -3.6839    0.6327    1.6798 O   0  0  0  0  0  0  0  0  0  0  0  0
    1.2163    0.0946    0.2922 C   0  0  2  0  0  0  0  0  0  0  0  0
    2.5213    0.9652    0.3451 C   0  0  0  0  0  0  0  0  0  0  0  0
    1.4013   -1.3667   -0.2137 C   0  0  2  0  0  0  0  0  0  0  0  0
    3.6653    0.1567    1.0079 C   0  0  0  0  0  0  0  0  0  0  0  0
    2.5906   -2.0493    0.4762 C   0  0  0  0  0  0  0  0  0  0  0  0
    3.8697   -1.2274    0.4022 C   0  0  0  0  0  0  0  0  0  0  0  0
    0.0304    0.7817   -0.4005 C   0  0  0  0  0  0  0  0  0  0  0  0
    2.2779    2.2167    1.2255 C   0  0  0  0  0  0  0  0  0  0  0  0
    2.9837    1.4811   -1.0319 C   0  0  0  0  0  0  0  0  0  0  0  0
    1.4714   -1.5518   -1.7331 C   0  0  0  0  0  0  0  0  0  0  0  0
   -1.2575    0.0017   -0.1653 C   0  0  0  0  0  0  0  0  0  0  0  0
   -2.4577    0.6944   -0.8186 C   0  0  1  0  0  0  0  0  0  0  0  0
   -2.2931    0.7904   -2.3294 C   0  0  0  0  0  0  0  0  0  0  0  0
   -3.9649   -0.1580    0.7894 C   0  0  0  0  0  0  0  0  0  0  0  0
   -4.7166   -1.4360    1.0083 C   0  0  0  0  0  0  0  0  0  0  0  0
    0.9201   -0.0219    1.3478 H   0  0  0  0  0  0  0  0  0  0  0  0
    0.5293   -1.9476    0.1138 H   0  0  0  0  0  0  0  0  0  0  0  0
    3.4509    0.0336    2.0785 H   0  0  0  0  0  0  0  0  0  0  0  0
    4.6084    0.7149    0.9497 H   0  0  0  0  0  0  0  0  0  0  0  0
    2.7658   -3.0427    0.0459 H   0  0  0  0  0  0  0  0  0  0  0  0
    2.3396   -2.2136    1.5326 H   0  0  0  0  0  0  0  0  0  0  0  0
    4.6625   -1.7465    0.9536 H   0  0  0  0  0  0  0  0  0  0  0  0
    4.2150   -1.1477   -0.6338 H   0  0  0  0  0  0  0  0  0  0  0  0
   -0.1100    1.7913   -0.0011 H   0  0  0  0  0  0  0  0  0  0  0  0
    0.2389    0.8960   -1.4671 H   0  0  0  0  0  0  0  0  0  0  0  0
    1.8776    1.9417    2.2077 H   0  0  0  0  0  0  0  0  0  0  0  0
    3.2129    2.7641    1.3954 H   0  0  0  0  0  0  0  0  0  0  0  0
    1.5789    2.9189    0.7606 H   0  0  0  0  0  0  0  0  0  0  0  0
    3.8626    2.1289   -0.9263 H   0  0  0  0  0  0  0  0  0  0  0  0
    3.2724    0.6799   -1.7117 H   0  0  0  0  0  0  0  0  0  0  0  0
    2.2090    2.0782   -1.5233 H   0  0  0  0  0  0  0  0  0  0  0  0
    0.5946   -1.1440   -2.2423 H   0  0  0  0  0  0  0  0  0  0  0  0
    2.3629   -1.1080   -2.1758 H   0  0  0  0  0  0  0  0  0  0  0  0
    1.5000   -2.6208   -1.9758 H   0  0  0  0  0  0  0  0  0  0  0  0
   -1.2070   -1.0137   -0.5720 H   0  0  0  0  0  0  0  0  0  0  0  0
   -1.4085   -0.1183    0.9129 H   0  0  0  0  0  0  0  0  0  0  0  0
   -2.5698    1.7132   -0.4254 H   0  0  0  0  0  0  0  0  0  0  0  0
   -2.0847   -0.1924   -2.7665 H   0  0  0  0  0  0  0  0  0  0  0  0
   -3.2250    1.1413   -2.7875 H   0  0  0  0  0  0  0  0  0  0  0  0
   -1.4999    1.4835   -2.6212 H   0  0  0  0  0  0  0  0  0  0  0  0
   -4.0954   -2.2856    0.7138 H   0  0  0  0  0  0  0  0  0  0  0  0
   -5.6470   -1.4216    0.4352 H   0  0  0  0  0  0  0  0  0  0  0  0
   -4.9621   -1.5352    2.0695 H   0  0  0  0  0  0  0  0  0  0  0  0
  1 14  1  0  0  0  0
  1 16  1  0  0  0  0
  2 16  2  0  0  0  0
  3  4  1  0  0  0  0
  3  5  1  0  0  0  0
  3  9  1  0  0  0  0
  3 18  1  0  0  0  0
  4  6  1  0  0  0  0
  4 10  1  0  0  0  0
  4 11  1  0  0  0  0
  5  7  1  0  0  0  0
  5 12  1  0  0  0  0
  5 19  1  0  0  0  0
  6  8  1  0  0  0  0
  6 20  1  0  0  0  0
  6 21  1  0  0  0  0
  7  8  1  0  0  0  0
  7 22  1  0  0  0  0
  7 23  1  0  0  0  0
  8 24  1  0  0  0  0
  8 25  1  0  0  0  0
  9 13  1  0  0  0  0
  9 26  1  0  0  0  0
  9 27  1  0  0  0  0
 10 28  1  0  0  0  0
 10 29  1  0  0  0  0
 10 30  1  0  0  0  0
 11 31  1  0  0  0  0
 11 32  1  0  0  0  0
 11 33  1  0  0  0  0
 12 34  1  0  0  0  0
 12 35  1  0  0  0  0
 12 36  1  0  0  0  0
 13 14  1  0  0  0  0
 13 37  1  0  0  0  0
 13 38  1  0  0  0  0
 14 15  1  0  0  0  0
 14 39  1  0  0  0  0
 15 40  1  0  0  0  0
 15 41  1  0  0  0  0
 15 42  1  0  0  0  0
 16 17  1  0  0  0  0
 17 43  1  0  0  0  0
 17 44  1  0  0  0  0
 17 45  1  0  0  0  0
M  END
> <PUBCHEM_COMPOUND_CID>
109468

> <PUBCHEM_CONFORMER_RMSD>
0.8

> <PUBCHEM_CONFORMER_DIVERSEORDER>
6
47
64
84
20
1
61
14
21
45
27
29
58
92
11
10
59
17
65
19
79
54
30
38
24
49
69
32
5
48
78
86
28
42
75
93
18
81
25
67
85
71
4
57
36
76
31
35
56
53
51
62
41
80
91
22
89
37
90
73
55
2
83
12
39
26
46
68
66
72
3
87
82
8
23
77
33
34
7
63
40
13
88
44
9
16
70
60
15
50
52
74
43

> <PUBCHEM_MMFF94_PARTIAL_CHARGES>
5
1 -0.43
14 0.28
16 0.66
17 0.06
2 -0.57

> <PUBCHEM_EFFECTIVE_ROTOR_COUNT>
6.2

> <PUBCHEM_PHARMACOPHORE_FEATURES>
3
1 2 acceptor
3 4 10 11 hydrophobe
6 3 4 5 6 7 8 rings

> <PUBCHEM_HEAVY_ATOM_COUNT>
17

> <PUBCHEM_ATOM_DEF_STEREO_COUNT>
0

> <PUBCHEM_ATOM_UDEF_STEREO_COUNT>
3

> <PUBCHEM_BOND_DEF_STEREO_COUNT>
0

> <PUBCHEM_BOND_UDEF_STEREO_COUNT>
0

> <PUBCHEM_ISOTOPIC_ATOM_COUNT>
0

> <PUBCHEM_COMPONENT_COUNT>
1

> <PUBCHEM_CACTVS_TAUTO_COUNT>
1

> <PUBCHEM_CONFORMER_ID>
0001AB9C00000006

> <PUBCHEM_MMFF94_ENERGY>
44.6335

> <PUBCHEM_FEATURE_SELFOVERLAP>
15.223

> <PUBCHEM_SHAPE_FINGERPRINT>
11405975 8 18041273258447053721
11543360 7 8214135232021365497
11552529 35 18199191870317591363
11615757 297 18273491277958141257
11796584 16 17025700474492154186
12363563 72 16950571012574867403
12500047 106 16734934641452893773
13134695 92 18197191699757690076
13296908 3 17968090898215107973
13533116 47 18413393125272245219
14252887 29 18059007281734117330
14289901 80 18040715883239642413
15219456 202 18260257530083503324
15653759 3 17822286838693362365
16945 1 18339905049236436790
19078846 21 17775008938100210056
20279233 1 18113896040321813231
20645477 70 18269538482159033463
21503847 285 17418104229798317232
21618674 53 16773514498695536581
21730867 7 18187363224924147114
21864079 5 17489588982683924017
22854114 111 18271801354287715440
22943178 12 18041265591798288901
23402539 116 14707205462154936782
23557571 272 17168416091465680949
23559900 14 17604137130309337246
251288 83 17458626769341342960
2838139 119 14474678724936845226
31174 14 18409729564521587208
474 4 17772737501843942040
6049 1 18113894918855450693
633830 44 17417531431521880852
7495541 125 17967817137331957182
7615 1 16916483935510130381
77492 1 17203313533578893773
9882013 296 18261398900863362163

> <PUBCHEM_SHAPE_MULTIPOLES>
338.11
8.58
1.95
1.66
7.72
0.22
-0.58
1.58
2.97
-1.57
0.1
0.85
-0.32
0.97

> <PUBCHEM_SHAPE_SELFOVERLAP>
659.147

> <PUBCHEM_SHAPE_VOLUME>
204

> <PUBCHEM_COORDINATE_TYPE>
2
5
10

$$$$
