109464
  -OEChem-11232109433D

 50 50  0     0  0  0  0  0  0999 V2000
    1.0165    0.5013   -0.3015 O   0  0  0  0  0  0  0  0  0  0  0  0
   -1.1337    1.0258   -1.1497 O   0  0  0  0  0  0  0  0  0  0  0  0
    4.7368    0.3669    0.3923 C   0  0  0  0  0  0  0  0  0  0  0  0
   -3.1864    2.1165    0.6658 C   0  0  0  0  0  0  0  0  0  0  0  0
    3.2210    0.4549    0.6328 C   0  0  0  0  0  0  0  0  0  0  0  0
   -2.4432    2.8966   -0.4305 C   0  0  0  0  0  0  0  0  0  0  0  0
    0.1493    0.4524   -1.4375 C   0  0  0  0  0  0  0  0  0  0  0  0
    2.3923    0.3917   -0.6447 C   0  0  0  0  0  0  0  0  0  0  0  0
   -1.0391    2.3744   -0.7106 C   0  0  0  0  0  0  0  0  0  0  0  0
   -0.0673   -0.9987   -1.9010 C   0  0  0  0  0  0  0  0  0  0  0  0
    5.1905    1.5279   -0.4959 C   0  0  0  0  0  0  0  0  0  0  0  0
    5.5347    0.3722    1.6969 C   0  0  0  0  0  0  0  0  0  0  0  0
   -2.4065    2.1964    1.9803 C   0  0  0  0  0  0  0  0  0  0  0  0
   -4.6120    2.6271    0.8793 C   0  0  0  0  0  0  0  0  0  0  0  0
   -0.6698   -1.8928   -0.8410 C   0  0  0  0  0  0  0  0  0  0  0  0
    0.1601   -2.5936    0.0343 C   0  0  0  0  0  0  0  0  0  0  0  0
   -2.0555   -2.0167   -0.7377 C   0  0  0  0  0  0  0  0  0  0  0  0
   -0.3956   -3.4184    1.0124 C   0  0  0  0  0  0  0  0  0  0  0  0
   -2.6110   -2.8415    0.2405 C   0  0  0  0  0  0  0  0  0  0  0  0
   -1.7809   -3.5422    1.1156 C   0  0  0  0  0  0  0  0  0  0  0  0
    4.9564   -0.5727   -0.1301 H   0  0  0  0  0  0  0  0  0  0  0  0
   -3.2577    1.0614    0.3732 H   0  0  0  0  0  0  0  0  0  0  0  0
    2.9076   -0.3621    1.2959 H   0  0  0  0  0  0  0  0  0  0  0  0
    2.9764    1.3775    1.1759 H   0  0  0  0  0  0  0  0  0  0  0  0
   -3.0318    2.8312   -1.3546 H   0  0  0  0  0  0  0  0  0  0  0  0
   -2.3849    3.9583   -0.1618 H   0  0  0  0  0  0  0  0  0  0  0  0
    0.5842    1.0273   -2.2659 H   0  0  0  0  0  0  0  0  0  0  0  0
    2.6424    1.2219   -1.3118 H   0  0  0  0  0  0  0  0  0  0  0  0
    2.5878   -0.5518   -1.1633 H   0  0  0  0  0  0  0  0  0  0  0  0
   -0.5890    2.9771   -1.5084 H   0  0  0  0  0  0  0  0  0  0  0  0
   -0.4007    2.4609    0.1735 H   0  0  0  0  0  0  0  0  0  0  0  0
    0.8753   -1.4432   -2.2406 H   0  0  0  0  0  0  0  0  0  0  0  0
   -0.7330   -1.0013   -2.7743 H   0  0  0  0  0  0  0  0  0  0  0  0
    4.8728    2.4933   -0.0877 H   0  0  0  0  0  0  0  0  0  0  0  0
    4.8011    1.4364   -1.5141 H   0  0  0  0  0  0  0  0  0  0  0  0
    6.2830    1.5443   -0.5801 H   0  0  0  0  0  0  0  0  0  0  0  0
    5.3733    1.3000    2.2562 H   0  0  0  0  0  0  0  0  0  0  0  0
    6.6076    0.2751    1.5003 H   0  0  0  0  0  0  0  0  0  0  0  0
    5.2341   -0.4647    2.3357 H   0  0  0  0  0  0  0  0  0  0  0  0
   -2.1970    3.2344    2.2603 H   0  0  0  0  0  0  0  0  0  0  0  0
   -1.4579    1.6543    1.9222 H   0  0  0  0  0  0  0  0  0  0  0  0
   -2.9782    1.7395    2.7960 H   0  0  0  0  0  0  0  0  0  0  0  0
   -4.6139    3.6744    1.2000 H   0  0  0  0  0  0  0  0  0  0  0  0
   -5.1296    2.0363    1.6424 H   0  0  0  0  0  0  0  0  0  0  0  0
   -5.1898    2.5560   -0.0482 H   0  0  0  0  0  0  0  0  0  0  0  0
    1.2410   -2.5087   -0.0355 H   0  0  0  0  0  0  0  0  0  0  0  0
   -2.7136   -1.4757   -1.4123 H   0  0  0  0  0  0  0  0  0  0  0  0
    0.2507   -3.9644    1.6936 H   0  0  0  0  0  0  0  0  0  0  0  0
   -3.6898   -2.9375    0.3214 H   0  0  0  0  0  0  0  0  0  0  0  0
   -2.2135   -4.1841    1.8774 H   0  0  0  0  0  0  0  0  0  0  0  0
  1  7  1  0  0  0  0
  1  8  1  0  0  0  0
  2  7  1  0  0  0  0
  2  9  1  0  0  0  0
  3  5  1  0  0  0  0
  3 11  1  0  0  0  0
  3 12  1  0  0  0  0
  3 21  1  0  0  0  0
  4  6  1  0  0  0  0
  4 13  1  0  0  0  0
  4 14  1  0  0  0  0
  4 22  1  0  0  0  0
  5  8  1  0  0  0  0
  5 23  1  0  0  0  0
  5 24  1  0  0  0  0
  6  9  1  0  0  0  0
  6 25  1  0  0  0  0
  6 26  1  0  0  0  0
  7 10  1  0  0  0  0
  7 27  1  0  0  0  0
  8 28  1  0  0  0  0
  8 29  1  0  0  0  0
  9 30  1  0  0  0  0
  9 31  1  0  0  0  0
 10 15  1  0  0  0  0
 10 32  1  0  0  0  0
 10 33  1  0  0  0  0
 11 34  1  0  0  0  0
 11 35  1  0  0  0  0
 11 36  1  0  0  0  0
 12 37  1  0  0  0  0
 12 38  1  0  0  0  0
 12 39  1  0  0  0  0
 13 40  1  0  0  0  0
 13 41  1  0  0  0  0
 13 42  1  0  0  0  0
 14 43  1  0  0  0  0
 14 44  1  0  0  0  0
 14 45  1  0  0  0  0
 15 16  2  0  0  0  0
 15 17  1  0  0  0  0
 16 18  1  0  0  0  0
 16 46  1  0  0  0  0
 17 19  2  0  0  0  0
 17 47  1  0  0  0  0
 18 20  2  0  0  0  0
 18 48  1  0  0  0  0
 19 20  1  0  0  0  0
 19 49  1  0  0  0  0
 20 50  1  0  0  0  0
M  END
> <PUBCHEM_COMPOUND_CID>
109464

> <PUBCHEM_CONFORMER_RMSD>
1

> <PUBCHEM_CONFORMER_DIVERSEORDER>
1
109
81
40
122
99
116
120
54
57
101
137
98
79
7
25
44
119
86
139
104
48
83
108
38
34
74
138
69
13
134
16
88
29
27
10
70
100
22
94
45
37
132
76
80
85
128
36
77
90
19
39
124
17
107
47
113
49
23
114
65
102
12
118
75
145
24
97
20
67
9
127
91
78
110
58
52
103
21
130
87
72
4
11
129
53
5
73
123
96
71
126
82
106
60
115
61
84
50
144
41
8
43
105
141
33
26
30
15
2
68
95
66
55
56
18
136
63
142
140
14
31
89
111
46
135
59
6
93
117
3
62
28
131
64
51
35
133
125
121
143
42
92
112
32

> <PUBCHEM_MMFF94_PARTIAL_CHARGES>
17
1 -0.56
10 0.14
15 -0.14
16 -0.15
17 -0.15
18 -0.15
19 -0.15
2 -0.56
20 -0.15
46 0.15
47 0.15
48 0.15
49 0.15
50 0.15
7 0.56
8 0.28
9 0.28

> <PUBCHEM_EFFECTIVE_ROTOR_COUNT>
10

> <PUBCHEM_PHARMACOPHORE_FEATURES>
5
1 1 acceptor
1 2 acceptor
3 3 11 12 hydrophobe
3 4 13 14 hydrophobe
6 15 16 17 18 19 20 rings

> <PUBCHEM_HEAVY_ATOM_COUNT>
20

> <PUBCHEM_ATOM_DEF_STEREO_COUNT>
0

> <PUBCHEM_ATOM_UDEF_STEREO_COUNT>
0

> <PUBCHEM_BOND_DEF_STEREO_COUNT>
0

> <PUBCHEM_BOND_UDEF_STEREO_COUNT>
0

> <PUBCHEM_ISOTOPIC_ATOM_COUNT>
0

> <PUBCHEM_COMPONENT_COUNT>
1

> <PUBCHEM_CACTVS_TAUTO_COUNT>
1

> <PUBCHEM_CONFORMER_ID>
0001AB9800000001

> <PUBCHEM_MMFF94_ENERGY>
37.6246

> <PUBCHEM_FEATURE_SELFOVERLAP>
25.409

> <PUBCHEM_SHAPE_FINGERPRINT>
11036077 4 18263906805498374810
11578080 2 17341859687118555372
11646440 116 18269281338910974187
12507560 14 17834400398910477439
12788726 201 18121515801472175228
14251757 17 13397761880153413272
14787075 74 18060132120731576213
14866123 147 18335413526841494250
15338160 23 18268993262205727600
15475509 84 17610645359321541555
15806764 133 17345487049462972000
19734167 9 17695678105125618153
21041028 32 17976830009832528823
21202864 24 18409455781858028248
22224240 67 18342175519273769993
23419403 2 13396622936541714071
23558518 356 18410572860044502846
345986 75 17899117588780533402
35225 105 18200012006869469979
427121 178 18198638635289549141
4340502 62 18199478662611383913
5104073 3 18265312046363664976
58807428 26 18263645069521261173
59755656 520 18270679762222566988
81228 2 18337952397514782476
9981440 41 17417512654272638982

> <PUBCHEM_SHAPE_MULTIPOLES>
399.85
8.68
4.83
1.65
13.88
2.75
-0.14
-7.26
-4.16
-6.65
-1.42
0
-0.15
-0.65

> <PUBCHEM_SHAPE_SELFOVERLAP>
780.418

> <PUBCHEM_SHAPE_VOLUME>
241.8

> <PUBCHEM_COORDINATE_TYPE>
2
5
10

$$$$
