109415
  -OEChem-11232108433D

 34 37  0     1  0  0  0  0  0999 V2000
   -2.3125   -0.4404   -0.9135 O   0  0  0  0  0  0  0  0  0  0  0  0
    0.0229    0.2763   -0.9072 C   0  0  2  0  0  0  0  0  0  0  0  0
    1.1458    0.8518   -0.0195 C   0  0  1  0  0  0  0  0  0  0  0  0
    0.6492   -1.4937    0.3071 C   0  0  2  0  0  0  0  0  0  0  0  0
    1.5668   -0.3697    0.8348 C   0  0  1  0  0  0  0  0  0  0  0  0
   -1.2349   -0.0149   -0.0526 C   0  0  2  0  0  0  0  0  0  0  0  0
    0.5185   -1.1537   -1.1791 C   0  0  0  0  0  0  0  0  0  0  0  0
   -0.7886   -1.2262    0.8077 C   0  0  0  0  0  0  0  0  0  0  0  0
    2.4066    1.2972   -0.7637 C   0  0  0  0  0  0  0  0  0  0  0  0
    3.0600   -0.5718    0.5704 C   0  0  0  0  0  0  0  0  0  0  0  0
   -1.7944    1.1496    0.7513 C   0  0  0  0  0  0  0  0  0  0  0  0
    3.5455    0.7944    0.1102 C   0  0  0  0  0  0  0  0  0  0  0  0
   -3.2458    0.7651    0.8986 C   0  0  0  0  0  0  0  0  0  0  0  0
   -3.5391    0.1360   -0.4445 C   0  0  0  0  0  0  0  0  0  0  0  0
   -0.1825    0.8489   -1.8151 H   0  0  0  0  0  0  0  0  0  0  0  0
    0.7981    1.6728    0.6164 H   0  0  0  0  0  0  0  0  0  0  0  0
    1.0059   -2.5015    0.5299 H   0  0  0  0  0  0  0  0  0  0  0  0
    1.4006   -0.1778    1.9015 H   0  0  0  0  0  0  0  0  0  0  0  0
    1.4633   -1.1984   -1.7270 H   0  0  0  0  0  0  0  0  0  0  0  0
   -0.2146   -1.7795   -1.6994 H   0  0  0  0  0  0  0  0  0  0  0  0
   -1.4224   -2.1011    0.6218 H   0  0  0  0  0  0  0  0  0  0  0  0
   -0.7970   -1.0175    1.8826 H   0  0  0  0  0  0  0  0  0  0  0  0
    2.4398    2.3843   -0.8867 H   0  0  0  0  0  0  0  0  0  0  0  0
    2.4702    0.8553   -1.7643 H   0  0  0  0  0  0  0  0  0  0  0  0
    3.2374   -1.3206   -0.2098 H   0  0  0  0  0  0  0  0  0  0  0  0
    3.5874   -0.9073    1.4690 H   0  0  0  0  0  0  0  0  0  0  0  0
   -1.7243    2.0800    0.1742 H   0  0  0  0  0  0  0  0  0  0  0  0
   -1.3001    1.3074    1.7141 H   0  0  0  0  0  0  0  0  0  0  0  0
    3.6840    1.4579    0.9720 H   0  0  0  0  0  0  0  0  0  0  0  0
    4.4925    0.7370   -0.4338 H   0  0  0  0  0  0  0  0  0  0  0  0
   -3.3576    0.0205    1.6954 H   0  0  0  0  0  0  0  0  0  0  0  0
   -3.9027    1.6085    1.1263 H   0  0  0  0  0  0  0  0  0  0  0  0
   -4.3111   -0.6363   -0.3870 H   0  0  0  0  0  0  0  0  0  0  0  0
   -3.8528    0.8893   -1.1748 H   0  0  0  0  0  0  0  0  0  0  0  0
  1  6  1  0  0  0  0
  1 14  1  0  0  0  0
  2  3  1  0  0  0  0
  2  6  1  0  0  0  0
  2  7  1  0  0  0  0
  2 15  1  0  0  0  0
  3  5  1  0  0  0  0
  3  9  1  0  0  0  0
  3 16  1  0  0  0  0
  4  5  1  0  0  0  0
  4  7  1  0  0  0  0
  4  8  1  0  0  0  0
  4 17  1  0  0  0  0
  5 10  1  0  0  0  0
  5 18  1  0  0  0  0
  6  8  1  0  0  0  0
  6 11  1  0  0  0  0
  7 19  1  0  0  0  0
  7 20  1  0  0  0  0
  8 21  1  0  0  0  0
  8 22  1  0  0  0  0
  9 12  1  0  0  0  0
  9 23  1  0  0  0  0
  9 24  1  0  0  0  0
 10 12  1  0  0  0  0
 10 25  1  0  0  0  0
 10 26  1  0  0  0  0
 11 13  1  0  0  0  0
 11 27  1  0  0  0  0
 11 28  1  0  0  0  0
 12 29  1  0  0  0  0
 12 30  1  0  0  0  0
 13 14  1  0  0  0  0
 13 31  1  0  0  0  0
 13 32  1  0  0  0  0
 14 33  1  0  0  0  0
 14 34  1  0  0  0  0
M  END
> <PUBCHEM_COMPOUND_CID>
109415

> <PUBCHEM_CONFORMER_RMSD>
0.6

> <PUBCHEM_CONFORMER_DIVERSEORDER>
1
5
2
4
8
6
3
9
7

> <PUBCHEM_MMFF94_PARTIAL_CHARGES>
3
1 -0.56
14 0.28
6 0.28

> <PUBCHEM_EFFECTIVE_ROTOR_COUNT>
1.8

> <PUBCHEM_PHARMACOPHORE_FEATURES>
4
1 1 acceptor
5 1 6 11 13 14 rings
5 3 5 9 10 12 rings
7 2 3 4 5 6 7 8 rings

> <PUBCHEM_HEAVY_ATOM_COUNT>
14

> <PUBCHEM_ATOM_DEF_STEREO_COUNT>
0

> <PUBCHEM_ATOM_UDEF_STEREO_COUNT>
5

> <PUBCHEM_BOND_DEF_STEREO_COUNT>
0

> <PUBCHEM_BOND_UDEF_STEREO_COUNT>
0

> <PUBCHEM_ISOTOPIC_ATOM_COUNT>
0

> <PUBCHEM_COMPONENT_COUNT>
1

> <PUBCHEM_CACTVS_TAUTO_COUNT>
1

> <PUBCHEM_CONFORMER_ID>
0001AB6700000001

> <PUBCHEM_MMFF94_ENERGY>
54.4069

> <PUBCHEM_FEATURE_SELFOVERLAP>
20.365

> <PUBCHEM_SHAPE_FINGERPRINT>
10219947 1 17967531259428231764
11031198 65 17846789485230205647
11132069 177 18412536613502184832
11471102 22 17458067040592470192
11769659 78 11242259579593249457
12251169 10 17967816063215625968
12423570 1 8490049247732185650
12491281 212 18272377476763142520
12808571 1 18341895199109732262
13024252 1 13334996336027726446
13380535 76 18409731772172103467
13571099 52 17846499209970922696
13581323 91 17023191547501586947
13705890 14 14549019892392257292
14943859 89 17632578257835821960
14993402 34 18410571807887998860
15219456 202 17168135707035902173
15309172 13 18113616789610693210
15775835 57 18202284701446030600
16945 1 18040713645551066714
17844478 74 16660359264487320644
18175812 5 16370723738160614798
18186145 218 18409452466174606148
200 152 18337101354752320391
20361792 2 9295288309420691243
20653085 51 17417819486293212088
20715346 28 16515684442046143223
21028194 46 18343018891356022488
21501502 16 18042126633978150322
21524375 3 18413108385397488344
23236772 104 18342173362946167809
23402539 116 17774711034952446917
2748010 2 18043259122354197506
276578 36 18272095971874739042
296302 2 15574719096681699540
305870 269 18270121193167338227
369184 2 17603862321148159179
5084963 1 18338220618232921160
528886 8 18413103974502901282
57812782 119 16200430277807696312
63268167 104 18334569140101389272
7364860 26 17559119765546013207
77492 1 18342730819193351133

> <PUBCHEM_SHAPE_MULTIPOLES>
282.24
5.31
1.39
1.1
0.86
0.14
-0.09
-1.58
0.51
-0.36
0.04
0.16
0.08
-0.45

> <PUBCHEM_SHAPE_SELFOVERLAP>
623.368

> <PUBCHEM_SHAPE_VOLUME>
160.4

> <PUBCHEM_COORDINATE_TYPE>
2
5
10

$$$$
