109418
  -OEChem-11232109083D

 28 28  0     1  0  0  0  0  0999 V2000
    3.1156   -1.1316   -0.2777 O   0  0  0  0  0  0  0  0  0  0  0  0
    0.1655    1.1574    0.3057 C   0  0  2  0  0  0  0  0  0  0  0  0
    0.9835   -0.0570   -0.1968 C   0  0  2  0  0  0  0  0  0  0  0  0
   -1.9442   -0.2735    0.3131 C   0  0  2  0  0  0  0  0  0  0  0  0
   -1.3047    1.0457   -0.1366 C   0  0  0  0  0  0  0  0  0  0  0  0
    0.3281   -1.3749    0.2482 C   0  0  0  0  0  0  0  0  0  0  0  0
   -1.1297   -1.4676   -0.1917 C   0  0  0  0  0  0  0  0  0  0  0  0
    2.4367   -0.0261    0.2850 C   0  0  0  0  0  0  0  0  0  0  0  0
    0.7397    2.4921   -0.1788 C   0  0  0  0  0  0  0  0  0  0  0  0
   -3.3906   -0.3646   -0.1706 C   0  0  0  0  0  0  0  0  0  0  0  0
    0.1882    1.1650    1.4042 H   0  0  0  0  0  0  0  0  0  0  0  0
    0.9893   -0.0506   -1.2961 H   0  0  0  0  0  0  0  0  0  0  0  0
   -1.9541   -0.2977    1.4110 H   0  0  0  0  0  0  0  0  0  0  0  0
   -1.3669    1.1333   -1.2297 H   0  0  0  0  0  0  0  0  0  0  0  0
   -1.8766    1.8852    0.2790 H   0  0  0  0  0  0  0  0  0  0  0  0
    0.3813   -1.4673    1.3408 H   0  0  0  0  0  0  0  0  0  0  0  0
    0.8672   -2.2340   -0.1679 H   0  0  0  0  0  0  0  0  0  0  0  0
   -1.1750   -1.5178   -1.2872 H   0  0  0  0  0  0  0  0  0  0  0  0
   -1.5621   -2.4016    0.1868 H   0  0  0  0  0  0  0  0  0  0  0  0
    2.4971   -0.0877    1.3767 H   0  0  0  0  0  0  0  0  0  0  0  0
    2.9518    0.8790   -0.0468 H   0  0  0  0  0  0  0  0  0  0  0  0
    0.8420    2.5078   -1.2691 H   0  0  0  0  0  0  0  0  0  0  0  0
    0.0874    3.3234    0.1108 H   0  0  0  0  0  0  0  0  0  0  0  0
    1.7212    2.6902    0.2616 H   0  0  0  0  0  0  0  0  0  0  0  0
   -3.4476   -0.3442   -1.2642 H   0  0  0  0  0  0  0  0  0  0  0  0
   -3.8578   -1.2925    0.1757 H   0  0  0  0  0  0  0  0  0  0  0  0
   -3.9822    0.4724    0.2149 H   0  0  0  0  0  0  0  0  0  0  0  0
    4.0331   -1.0993    0.0428 H   0  0  0  0  0  0  0  0  0  0  0  0
  1  8  1  0  0  0  0
  1 28  1  0  0  0  0
  2  3  1  0  0  0  0
  2  5  1  0  0  0  0
  2  9  1  0  0  0  0
  2 11  1  0  0  0  0
  3  6  1  0  0  0  0
  3  8  1  0  0  0  0
  3 12  1  0  0  0  0
  4  5  1  0  0  0  0
  4  7  1  0  0  0  0
  4 10  1  0  0  0  0
  4 13  1  0  0  0  0
  5 14  1  0  0  0  0
  5 15  1  0  0  0  0
  6  7  1  0  0  0  0
  6 16  1  0  0  0  0
  6 17  1  0  0  0  0
  7 18  1  0  0  0  0
  7 19  1  0  0  0  0
  8 20  1  0  0  0  0
  8 21  1  0  0  0  0
  9 22  1  0  0  0  0
  9 23  1  0  0  0  0
  9 24  1  0  0  0  0
 10 25  1  0  0  0  0
 10 26  1  0  0  0  0
 10 27  1  0  0  0  0
M  END
> <PUBCHEM_COMPOUND_CID>
109418

> <PUBCHEM_CONFORMER_RMSD>
0.4

> <PUBCHEM_CONFORMER_DIVERSEORDER>
6
39
45
55
41
60
20
40
54
63
28
2
50
32
27
34
56
37
47
17
51
43
49
33
59
44
16
62
35
14
31
21
7
58
19
26
11
30
18
46
15
4
42
64
23
24
25
53
22
13
29
38
10
52
61
12
3
57
5
1
48
8
9
36

> <PUBCHEM_MMFF94_PARTIAL_CHARGES>
3
1 -0.68
28 0.4
8 0.28

> <PUBCHEM_EFFECTIVE_ROTOR_COUNT>
2.2

> <PUBCHEM_PHARMACOPHORE_FEATURES>
3
1 1 acceptor
1 1 donor
6 2 3 4 5 6 7 rings

> <PUBCHEM_HEAVY_ATOM_COUNT>
10

> <PUBCHEM_ATOM_DEF_STEREO_COUNT>
0

> <PUBCHEM_ATOM_UDEF_STEREO_COUNT>
3

> <PUBCHEM_BOND_DEF_STEREO_COUNT>
0

> <PUBCHEM_BOND_UDEF_STEREO_COUNT>
0

> <PUBCHEM_ISOTOPIC_ATOM_COUNT>
0

> <PUBCHEM_COMPONENT_COUNT>
1

> <PUBCHEM_CACTVS_TAUTO_COUNT>
1

> <PUBCHEM_CONFORMER_ID>
0001AB6A00000006

> <PUBCHEM_MMFF94_ENERGY>
14.1654

> <PUBCHEM_FEATURE_SELFOVERLAP>
15.223

> <PUBCHEM_SHAPE_FINGERPRINT>
10219947 1 18342740714972256299
11206711 2 18334571296475659181
12032990 46 18410863135303739779
13380535 21 17902807579983631881
13380535 76 17904753736834027072
14128692 85 18341334482375820069
14993402 34 18412546517670369775
16945 1 18409731780930492283
18185500 45 18409448068085909891
193761 8 17833833046367046915
207724 885 18411425015852158339
21040471 1 17473259873480235592
21501502 16 18050566549567687055
23402655 69 18123168136460031517
23552423 10 18048033257396864495
241688 4 18339082562382282560
2748010 2 18123469384584730119
5084963 1 18273213127365232587
528862 383 18191018117428488177
7364860 26 18126285474366146496

> <PUBCHEM_SHAPE_MULTIPOLES>
199.93
3.98
2.02
0.66
0.67
0.96
-0.01
-1.23
0.2
-0.68
0.12
0.01
0
0.03

> <PUBCHEM_SHAPE_SELFOVERLAP>
383.604

> <PUBCHEM_SHAPE_VOLUME>
122.6

> <PUBCHEM_COORDINATE_TYPE>
2
5
10

$$$$
