109413
  -OEChem-11232109273D

 38 37  0     1  0  0  0  0  0999 V2000
    2.1215    0.0849    0.8671 O   0  0  0  0  0  0  0  0  0  0  0  0
    2.6339    1.1973   -1.0916 O   0  0  0  0  0  0  0  0  0  0  0  0
   -0.6077   -0.3149   -0.1524 C   0  0  0  0  0  0  0  0  0  0  0  0
   -1.7052   -0.0318   -1.1860 C   0  0  0  0  0  0  0  0  0  0  0  0
    0.6737   -0.8145   -0.8372 C   0  0  0  0  0  0  0  0  0  0  0  0
   -3.0604    0.4246   -0.6022 C   0  0  1  0  0  0  0  0  0  0  0  0
    1.8425   -1.1050    0.1261 C   0  0  0  0  0  0  0  0  0  0  0  0
   -3.7032   -0.6714    0.2685 C   0  0  0  0  0  0  0  0  0  0  0  0
   -2.9296    1.7525    0.1488 C   0  0  0  0  0  0  0  0  0  0  0  0
    1.4285   -2.1932    1.1223 C   0  0  0  0  0  0  0  0  0  0  0  0
    3.1161   -1.5276   -0.6093 C   0  0  0  0  0  0  0  0  0  0  0  0
   -5.0827   -0.2930    0.7916 C   0  0  0  0  0  0  0  0  0  0  0  0
    2.5082    1.1623    0.1250 C   0  0  0  0  0  0  0  0  0  0  0  0
    2.7645    2.3298    1.0291 C   0  0  0  0  0  0  0  0  0  0  0  0
   -0.3948    0.5952    0.4172 H   0  0  0  0  0  0  0  0  0  0  0  0
   -0.9633   -1.0713    0.5513 H   0  0  0  0  0  0  0  0  0  0  0  0
   -1.3475    0.7365   -1.8837 H   0  0  0  0  0  0  0  0  0  0  0  0
   -1.8725   -0.9355   -1.7864 H   0  0  0  0  0  0  0  0  0  0  0  0
    0.4330   -1.7476   -1.3669 H   0  0  0  0  0  0  0  0  0  0  0  0
    0.9373   -0.1142   -1.6337 H   0  0  0  0  0  0  0  0  0  0  0  0
   -3.7252    0.6023   -1.4587 H   0  0  0  0  0  0  0  0  0  0  0  0
   -3.0695   -0.9034    1.1312 H   0  0  0  0  0  0  0  0  0  0  0  0
   -3.7919   -1.5924   -0.3203 H   0  0  0  0  0  0  0  0  0  0  0  0
   -2.3633    2.4800   -0.4427 H   0  0  0  0  0  0  0  0  0  0  0  0
   -2.4211    1.6246    1.1098 H   0  0  0  0  0  0  0  0  0  0  0  0
   -3.9120    2.1939    0.3443 H   0  0  0  0  0  0  0  0  0  0  0  0
    0.6572   -1.8428    1.8158 H   0  0  0  0  0  0  0  0  0  0  0  0
    1.0729   -3.0968    0.6165 H   0  0  0  0  0  0  0  0  0  0  0  0
    2.2808   -2.4722    1.7539 H   0  0  0  0  0  0  0  0  0  0  0  0
    3.0324   -2.5649   -0.9544 H   0  0  0  0  0  0  0  0  0  0  0  0
    3.3315   -0.9349   -1.5020 H   0  0  0  0  0  0  0  0  0  0  0  0
    3.9919   -1.4588    0.0461 H   0  0  0  0  0  0  0  0  0  0  0  0
   -5.0296    0.5263    1.5144 H   0  0  0  0  0  0  0  0  0  0  0  0
   -5.7463    0.0043   -0.0264 H   0  0  0  0  0  0  0  0  0  0  0  0
   -5.5368   -1.1497    1.3005 H   0  0  0  0  0  0  0  0  0  0  0  0
    3.5646    2.0855    1.7323 H   0  0  0  0  0  0  0  0  0  0  0  0
    1.8480    2.5920    1.5635 H   0  0  0  0  0  0  0  0  0  0  0  0
    3.0773    3.1901    0.4305 H   0  0  0  0  0  0  0  0  0  0  0  0
  1  7  1  0  0  0  0
  1 13  1  0  0  0  0
  2 13  2  0  0  0  0
  3  4  1  0  0  0  0
  3  5  1  0  0  0  0
  3 15  1  0  0  0  0
  3 16  1  0  0  0  0
  4  6  1  0  0  0  0
  4 17  1  0  0  0  0
  4 18  1  0  0  0  0
  5  7  1  0  0  0  0
  5 19  1  0  0  0  0
  5 20  1  0  0  0  0
  6  8  1  0  0  0  0
  6  9  1  0  0  0  0
  6 21  1  0  0  0  0
  7 10  1  0  0  0  0
  7 11  1  0  0  0  0
  8 12  1  0  0  0  0
  8 22  1  0  0  0  0
  8 23  1  0  0  0  0
  9 24  1  0  0  0  0
  9 25  1  0  0  0  0
  9 26  1  0  0  0  0
 10 27  1  0  0  0  0
 10 28  1  0  0  0  0
 10 29  1  0  0  0  0
 11 30  1  0  0  0  0
 11 31  1  0  0  0  0
 11 32  1  0  0  0  0
 12 33  1  0  0  0  0
 12 34  1  0  0  0  0
 12 35  1  0  0  0  0
 13 14  1  0  0  0  0
 14 36  1  0  0  0  0
 14 37  1  0  0  0  0
 14 38  1  0  0  0  0
M  END
> <PUBCHEM_COMPOUND_CID>
109413

> <PUBCHEM_CONFORMER_RMSD>
0.8

> <PUBCHEM_CONFORMER_DIVERSEORDER>
1
52
66
11
64
17
69
68
71
51
72
20
8
14
45
62
34
9
73
29
50
30
63
65
16
24
36
70
6
21
49
10
55
74
4
19
67
37
32
59
61
5
54
41
22
18
40
58
38
13
56
33
57
39
12
60
48
42
7
26
46
47
27
44
25
53
2
28
3
35
43
31
23
15

> <PUBCHEM_MMFF94_PARTIAL_CHARGES>
5
1 -0.43
13 0.66
14 0.06
2 -0.57
7 0.28

> <PUBCHEM_EFFECTIVE_ROTOR_COUNT>
7

> <PUBCHEM_PHARMACOPHORE_FEATURES>
5
1 12 hydrophobe
1 2 acceptor
1 9 hydrophobe
3 7 10 11 hydrophobe
5 3 4 5 6 8 hydrophobe

> <PUBCHEM_HEAVY_ATOM_COUNT>
14

> <PUBCHEM_ATOM_DEF_STEREO_COUNT>
0

> <PUBCHEM_ATOM_UDEF_STEREO_COUNT>
1

> <PUBCHEM_BOND_DEF_STEREO_COUNT>
0

> <PUBCHEM_BOND_UDEF_STEREO_COUNT>
0

> <PUBCHEM_ISOTOPIC_ATOM_COUNT>
0

> <PUBCHEM_COMPONENT_COUNT>
1

> <PUBCHEM_CACTVS_TAUTO_COUNT>
1

> <PUBCHEM_CONFORMER_ID>
0001AB6500000001

> <PUBCHEM_MMFF94_ENERGY>
26.3162

> <PUBCHEM_FEATURE_SELFOVERLAP>
25.396

> <PUBCHEM_SHAPE_FINGERPRINT>
10366900 7 18041007219492926459
10980938 120 18271801354192691909
11715629 250 18201147840798628589
12596602 18 18200333095200327979
12932764 1 18114737132019921479
13296908 3 18040432162190059079
13533116 47 18042400232623215267
14289901 80 18187650210818652345
15775835 57 18059008505171977756
17041 49 18122898729291109866
17041 50 18127972992817762262
170605 34 18341326786015893732
18186145 218 18260546671898532191
19050596 39 18411133654219584163
20339313 130 18058733481594842102
20539784 86 18335976506574336498
20559304 39 18272367534103788688
20645477 70 18339910533714878871
20671657 1 18412258441661260454
20681677 76 18337097995961495901
21041028 32 18198618844328175616
21503847 285 18201165360112290193
21524375 3 18123732413040907660
21730867 7 17894909611677870710
22169311 21 17676477316580040223
2255824 54 18260831471164430518
22854114 111 18341889714347019345
23557571 272 17167853141612414829
23559900 14 17968095287856359287
251288 83 17095524036657956905
31174 14 18335978692644001639
3286 77 18114457855781720563
5374978 207 18408604752011681865
6049 1 17968931981586792093
6333272 397 18041284373537221837
7364860 26 18272646840433238318
9882013 296 17894914078818346373

> <PUBCHEM_SHAPE_MULTIPOLES>
276.37
7.93
2.15
1.15
8.66
0.57
0.01
0.79
-1.36
-2.11
-0.63
-0.2
-0.06
0.41

> <PUBCHEM_SHAPE_SELFOVERLAP>
517.394

> <PUBCHEM_SHAPE_VOLUME>
173.2

> <PUBCHEM_COORDINATE_TYPE>
2
5
10

$$$$
