109640
  -OEChem-11232109183D

 29 30  0     0  0  0  0  0  0999 V2000
    2.9496    0.9300    0.4451 N   0  0  0  0  0  0  0  0  0  0  0  0
   -3.4097   -0.1061    0.4138 C   0  0  0  0  0  0  0  0  0  0  0  0
   -2.5351    0.3018   -0.7983 C   0  0  0  0  0  0  0  0  0  0  0  0
   -1.0886    0.4578   -0.4731 C   0  0  0  0  0  0  0  0  0  0  0  0
   -2.9427   -1.4235    1.0385 C   0  0  0  0  0  0  0  0  0  0  0  0
   -4.8776   -0.2282   -0.0039 C   0  0  0  0  0  0  0  0  0  0  0  0
   -0.2262   -0.6296   -0.5788 C   0  0  0  0  0  0  0  0  0  0  0  0
   -0.5929    1.6889   -0.0622 C   0  0  0  0  0  0  0  0  0  0  0  0
    1.1379   -0.4874   -0.2730 C   0  0  0  0  0  0  0  0  0  0  0  0
    1.6483    0.7596    0.1447 C   0  0  0  0  0  0  0  0  0  0  0  0
    0.7634    1.8299    0.2417 C   0  0  0  0  0  0  0  0  0  0  0  0
    2.0281   -1.5653   -0.3706 C   0  0  0  0  0  0  0  0  0  0  0  0
    3.3697   -1.3925   -0.0617 C   0  0  0  0  0  0  0  0  0  0  0  0
    3.7759   -0.1355    0.3378 C   0  0  0  0  0  0  0  0  0  0  0  0
   -3.3394    0.6761    1.1809 H   0  0  0  0  0  0  0  0  0  0  0  0
   -2.9159    1.2423   -1.2189 H   0  0  0  0  0  0  0  0  0  0  0  0
   -2.6503   -0.4375   -1.6028 H   0  0  0  0  0  0  0  0  0  0  0  0
   -3.6380   -1.7450    1.8222 H   0  0  0  0  0  0  0  0  0  0  0  0
   -2.8898   -2.2235    0.2925 H   0  0  0  0  0  0  0  0  0  0  0  0
   -1.9623   -1.3214    1.5130 H   0  0  0  0  0  0  0  0  0  0  0  0
   -5.2397    0.7152   -0.4260 H   0  0  0  0  0  0  0  0  0  0  0  0
   -5.0122   -1.0113   -0.7578 H   0  0  0  0  0  0  0  0  0  0  0  0
   -5.5093   -0.4727    0.8566 H   0  0  0  0  0  0  0  0  0  0  0  0
   -0.6088   -1.5948   -0.9054 H   0  0  0  0  0  0  0  0  0  0  0  0
   -1.2493    2.5502    0.0293 H   0  0  0  0  0  0  0  0  0  0  0  0
    1.1268    2.8047    0.5618 H   0  0  0  0  0  0  0  0  0  0  0  0
    1.6808   -2.5459   -0.6881 H   0  0  0  0  0  0  0  0  0  0  0  0
    4.0717   -2.2149   -0.1317 H   0  0  0  0  0  0  0  0  0  0  0  0
    4.8126    0.0592    0.5921 H   0  0  0  0  0  0  0  0  0  0  0  0
  1 10  1  0  0  0  0
  1 14  2  0  0  0  0
  2  3  1  0  0  0  0
  2  5  1  0  0  0  0
  2  6  1  0  0  0  0
  2 15  1  0  0  0  0
  3  4  1  0  0  0  0
  3 16  1  0  0  0  0
  3 17  1  0  0  0  0
  4  7  2  0  0  0  0
  4  8  1  0  0  0  0
  5 18  1  0  0  0  0
  5 19  1  0  0  0  0
  5 20  1  0  0  0  0
  6 21  1  0  0  0  0
  6 22  1  0  0  0  0
  6 23  1  0  0  0  0
  7  9  1  0  0  0  0
  7 24  1  0  0  0  0
  8 11  2  0  0  0  0
  8 25  1  0  0  0  0
  9 10  2  0  0  0  0
  9 12  1  0  0  0  0
 10 11  1  0  0  0  0
 11 26  1  0  0  0  0
 12 13  2  0  0  0  0
 12 27  1  0  0  0  0
 13 14  1  0  0  0  0
 13 28  1  0  0  0  0
 14 29  1  0  0  0  0
M  END
> <PUBCHEM_COMPOUND_CID>
109640

> <PUBCHEM_CONFORMER_RMSD>
0.6

> <PUBCHEM_CONFORMER_DIVERSEORDER>
1
2

> <PUBCHEM_MMFF94_PARTIAL_CHARGES>
16
1 -0.62
10 0.31
11 -0.15
12 -0.15
13 -0.15
14 0.16
24 0.15
25 0.15
26 0.15
27 0.15
28 0.15
29 0.15
3 0.14
4 -0.14
7 -0.15
8 -0.15

> <PUBCHEM_EFFECTIVE_ROTOR_COUNT>
2

> <PUBCHEM_PHARMACOPHORE_FEATURES>
4
1 1 acceptor
3 2 5 6 hydrophobe
6 1 9 10 12 13 14 rings
6 4 7 8 9 10 11 rings

> <PUBCHEM_HEAVY_ATOM_COUNT>
14

> <PUBCHEM_ATOM_DEF_STEREO_COUNT>
0

> <PUBCHEM_ATOM_UDEF_STEREO_COUNT>
0

> <PUBCHEM_BOND_DEF_STEREO_COUNT>
0

> <PUBCHEM_BOND_UDEF_STEREO_COUNT>
0

> <PUBCHEM_ISOTOPIC_ATOM_COUNT>
0

> <PUBCHEM_COMPONENT_COUNT>
1

> <PUBCHEM_CACTVS_TAUTO_COUNT>
1

> <PUBCHEM_CONFORMER_ID>
0001AC4800000001

> <PUBCHEM_MMFF94_ENERGY>
36.2464

> <PUBCHEM_FEATURE_SELFOVERLAP>
20.329

> <PUBCHEM_SHAPE_FINGERPRINT>
10219947 1 18202002131257693775
10618630 7 18410575058998861236
11132069 177 18342730849363857594
11471102 20 18413103974302551685
11471102 22 18342181076264417123
11543360 7 16371019502636145662
12032990 46 18411702045711777870
12251169 10 18202565098702285551
124424 183 18334574646782095751
13140716 1 18125990809803073096
13296908 3 18409164376990418629
14115302 16 17676216775047024951
14252887 29 18130795529276524502
14350558 41 18259991465444111012
14943859 89 13470685949261998023
15219456 202 18408880728860619389
15309172 13 17917709089139285311
15375358 24 18408036308410038415
15375462 478 17775289352710342257
15501101 241 18411416236865418596
15653759 3 18186800279423890197
16945 1 18272358798346212404
17844478 74 18335417945940432836
200 152 18060410344670647487
20201158 50 18335140890722453019
20279233 1 18260830401759635243
20281407 28 18114187431977103115
20645477 70 18343013359570196407
20871998 22 18129389206638678070
21267235 1 18341338811893011934
21501925 9 18411697681803471905
22485316 2 18334011696660051275
231179 274 11527951131772299235
23557571 272 17312814970521016124
23559900 14 18187642441149259562
25610 137 18410576171617138372
26918003 58 18334290959406721395
2748010 2 18127118685368621556
4990 188 12252185147463718769
5104073 3 18198614429291622258
83771 10 18409167688415498005
8809292 202 18186806898000492963

> <PUBCHEM_SHAPE_MULTIPOLES>
283.13
7.37
1.69
0.83
4.24
0.22
-0.02
-2.25
-1
-0.62
-0.14
0.3
-0.11
0.6

> <PUBCHEM_SHAPE_SELFOVERLAP>
602.895

> <PUBCHEM_SHAPE_VOLUME>
158.3

> <PUBCHEM_COORDINATE_TYPE>
2
5
10

$$$$
