11008539
  -OEChem-11232109023D

 33 32  0     0  0  0  0  0  0999 V2000
   -1.6623   -1.0827    1.5553 O   0  0  0  0  0  0  0  0  0  0  0  0
    2.4620    0.2639   -0.1779 C   0  0  0  0  0  0  0  0  0  0  0  0
    0.9623    0.2615    0.2565 C   0  0  0  0  0  0  0  0  0  0  0  0
    3.3426    0.2409    1.0863 C   0  0  0  0  0  0  0  0  0  0  0  0
    2.8665   -0.9190   -1.0892 C   0  0  0  0  0  0  0  0  0  0  0  0
    2.8253    1.5355   -0.9916 C   0  0  0  0  0  0  0  0  0  0  0  0
    0.0573   -0.7064   -0.0419 C   0  0  0  0  0  0  0  0  0  0  0  0
    0.5591    1.4530    1.1171 C   0  0  0  0  0  0  0  0  0  0  0  0
    0.2646   -1.9799   -0.8053 C   0  0  0  0  0  0  0  0  0  0  0  0
   -1.3363   -0.5869    0.4843 C   0  0  0  0  0  0  0  0  0  0  0  0
   -2.2637    0.1447   -0.4181 C   0  0  0  0  0  0  0  0  0  0  0  0
   -3.5426    0.3248   -0.0636 C   0  0  0  0  0  0  0  0  0  0  0  0
   -4.5349    1.0506   -0.9118 C   0  0  0  0  0  0  0  0  0  0  0  0
    4.4005    0.1175    0.8243 H   0  0  0  0  0  0  0  0  0  0  0  0
    3.2729    1.1683    1.6644 H   0  0  0  0  0  0  0  0  0  0  0  0
    3.0704   -0.5929    1.7439 H   0  0  0  0  0  0  0  0  0  0  0  0
    3.9247   -0.8210   -1.3712 H   0  0  0  0  0  0  0  0  0  0  0  0
    2.3245   -0.9264   -2.0377 H   0  0  0  0  0  0  0  0  0  0  0  0
    2.8167   -1.8821   -0.5782 H   0  0  0  0  0  0  0  0  0  0  0  0
    2.1774    1.6361   -1.8701 H   0  0  0  0  0  0  0  0  0  0  0  0
    2.7223    2.4473   -0.3939 H   0  0  0  0  0  0  0  0  0  0  0  0
    3.8641    1.5050   -1.3412 H   0  0  0  0  0  0  0  0  0  0  0  0
    1.1416    1.4818    2.0421 H   0  0  0  0  0  0  0  0  0  0  0  0
    0.7148    2.3893    0.5734 H   0  0  0  0  0  0  0  0  0  0  0  0
   -0.4880    1.4577    1.4280 H   0  0  0  0  0  0  0  0  0  0  0  0
    0.5058   -1.8025   -1.8546 H   0  0  0  0  0  0  0  0  0  0  0  0
    0.9801   -2.6423   -0.3147 H   0  0  0  0  0  0  0  0  0  0  0  0
   -0.6676   -2.5605   -0.8331 H   0  0  0  0  0  0  0  0  0  0  0  0
   -1.8793    0.5257   -1.3583 H   0  0  0  0  0  0  0  0  0  0  0  0
   -3.9144   -0.0607    0.8819 H   0  0  0  0  0  0  0  0  0  0  0  0
   -4.9322    1.9116   -0.3658 H   0  0  0  0  0  0  0  0  0  0  0  0
   -4.0960    1.4128   -1.8470 H   0  0  0  0  0  0  0  0  0  0  0  0
   -5.3683    0.3866   -1.1608 H   0  0  0  0  0  0  0  0  0  0  0  0
  1 10  2  0  0  0  0
  2  3  1  0  0  0  0
  2  4  1  0  0  0  0
  2  5  1  0  0  0  0
  2  6  1  0  0  0  0
  3  7  2  0  0  0  0
  3  8  1  0  0  0  0
  4 14  1  0  0  0  0
  4 15  1  0  0  0  0
  4 16  1  0  0  0  0
  5 17  1  0  0  0  0
  5 18  1  0  0  0  0
  5 19  1  0  0  0  0
  6 20  1  0  0  0  0
  6 21  1  0  0  0  0
  6 22  1  0  0  0  0
  7  9  1  0  0  0  0
  7 10  1  0  0  0  0
  8 23  1  0  0  0  0
  8 24  1  0  0  0  0
  8 25  1  0  0  0  0
  9 26  1  0  0  0  0
  9 27  1  0  0  0  0
  9 28  1  0  0  0  0
 10 11  1  0  0  0  0
 11 12  2  0  0  0  0
 11 29  1  0  0  0  0
 12 13  1  0  0  0  0
 12 30  1  0  0  0  0
 13 31  1  0  0  0  0
 13 32  1  0  0  0  0
 13 33  1  0  0  0  0
M  END
> <PUBCHEM_COMPOUND_CID>
11008539

> <PUBCHEM_CONFORMER_RMSD>
0.6

> <PUBCHEM_CONFORMER_DIVERSEORDER>
1
9
8
10
12
11
7
6
4
5
3
2

> <PUBCHEM_MMFF94_PARTIAL_CHARGES>
12
1 -0.57
10 0.54
11 -0.14
12 -0.29
13 0.14
2 0.14
29 0.15
3 -0.28
30 0.15
7 -0.12
8 0.14
9 0.14

> <PUBCHEM_EFFECTIVE_ROTOR_COUNT>
3

> <PUBCHEM_PHARMACOPHORE_FEATURES>
5
1 1 acceptor
1 13 hydrophobe
1 8 hydrophobe
1 9 hydrophobe
4 2 4 5 6 hydrophobe

> <PUBCHEM_HEAVY_ATOM_COUNT>
13

> <PUBCHEM_ATOM_DEF_STEREO_COUNT>
0

> <PUBCHEM_ATOM_UDEF_STEREO_COUNT>
0

> <PUBCHEM_BOND_DEF_STEREO_COUNT>
2

> <PUBCHEM_BOND_UDEF_STEREO_COUNT>
0

> <PUBCHEM_ISOTOPIC_ATOM_COUNT>
0

> <PUBCHEM_COMPONENT_COUNT>
1

> <PUBCHEM_CACTVS_TAUTO_COUNT>
8

> <PUBCHEM_CONFORMER_ID>
00A7FA1B00000001

> <PUBCHEM_MMFF94_ENERGY>
43.0484

> <PUBCHEM_FEATURE_SELFOVERLAP>
25.375

> <PUBCHEM_SHAPE_FINGERPRINT>
11031198 65 18341898476391351359
11769659 78 13110698111418852868
12138202 97 18333734641331555107
122479 349 17967816067737453005
124424 183 18335135392990000626
12491281 212 16443357497639843728
12654215 9 18412546492148349332
12932764 1 18195537114808728250
13571099 22 18201444657762186286
13705890 14 17489867154556172047
14251717 144 17989202603705363375
14252887 29 11314311615917109604
14993402 34 17203892971985585012
15375462 189 9367341526860902045
15775835 57 18131066060570738813
16945 1 18114468872551812538
18186145 218 18337678512061697063
18511873 20 17603856797899338192
19422 9 15357701911212801827
20233049 118 18336816528984090440
20279233 1 18060138764723560666
20645476 183 18115031925769409454
20645477 70 17989211408298850990
20671657 53 16559027173507764249
20711983 171 17531249490854880502
212847 35 17022901211949575957
21524375 3 18261382335248341487
22485316 2 11455886962624835341
22959321 8 18413670223323645169
231179 274 17895748496543380621
23402539 116 18041827468168050869
23402655 69 18130782318416071013
23493267 7 18114760316448323618
23557571 272 17896619451043219252
25 1 18341335509294951451
2748010 2 17341533308232228528
276578 36 16153707583531483825
3060560 45 17845639396484160477
3248919 1 18340497724168013976
4047638 21 18040156205919457845
63268167 104 17775290477569709234
8030462 33 17346053224340071106

> <PUBCHEM_SHAPE_MULTIPOLES>
261.66
6.65
1.58
1.26
5.12
0.29
0.16
-2.2
-1.84
-0.5
-0.22
-0.19
-0.07
0.54

> <PUBCHEM_SHAPE_SELFOVERLAP>
502.303

> <PUBCHEM_SHAPE_VOLUME>
161.6

> <PUBCHEM_COORDINATE_TYPE>
2
5
10

$$$$
