11007913
  -OEChem-11232109203D

 17 17  0     1  0  0  0  0  0999 V2000
   -0.0411    1.4669    0.2574 O   0  0  0  0  0  0  0  0  0  0  0  0
    1.5030   -1.7962   -0.2438 O   0  0  0  0  0  0  0  0  0  0  0  0
   -1.3830   -1.7607    0.1304 O   0  0  0  0  0  0  0  0  0  0  0  0
   -1.2192    0.6477    0.4034 C   0  0  2  0  0  0  0  0  0  0  0  0
   -0.7093   -0.7442    0.1607 C   0  0  0  0  0  0  0  0  0  0  0  0
    1.0220    0.5922    0.0378 C   0  0  0  0  0  0  0  0  0  0  0  0
    0.7316   -0.7047   -0.0346 C   0  0  0  0  0  0  0  0  0  0  0  0
   -2.2626    1.0657   -0.6118 C   0  0  0  0  0  0  0  0  0  0  0  0
    2.3584    1.2333   -0.0994 C   0  0  0  0  0  0  0  0  0  0  0  0
   -1.5818    0.7393    1.4323 H   0  0  0  0  0  0  0  0  0  0  0  0
   -2.5376    2.1157   -0.4685 H   0  0  0  0  0  0  0  0  0  0  0  0
   -1.8786    0.9740   -1.6342 H   0  0  0  0  0  0  0  0  0  0  0  0
   -3.1635    0.4498   -0.5307 H   0  0  0  0  0  0  0  0  0  0  0  0
    3.1463    0.4945   -0.2772 H   0  0  0  0  0  0  0  0  0  0  0  0
    2.6106    1.7835    0.8125 H   0  0  0  0  0  0  0  0  0  0  0  0
    2.3581    1.9357   -0.9386 H   0  0  0  0  0  0  0  0  0  0  0  0
    0.9168   -2.5726   -0.2328 H   0  0  0  0  0  0  0  0  0  0  0  0
  1  4  1  0  0  0  0
  1  6  1  0  0  0  0
  2  7  1  0  0  0  0
  2 17  1  0  0  0  0
  3  5  2  0  0  0  0
  4  5  1  0  0  0  0
  4  8  1  0  0  0  0
  4 10  1  0  0  0  0
  5  7  1  0  0  0  0
  6  7  2  0  0  0  0
  6  9  1  0  0  0  0
  8 11  1  0  0  0  0
  8 12  1  0  0  0  0
  8 13  1  0  0  0  0
  9 14  1  0  0  0  0
  9 15  1  0  0  0  0
  9 16  1  0  0  0  0
M  END
> <PUBCHEM_COMPOUND_CID>
11007913

> <PUBCHEM_CONFORMER_RMSD>
0.4

> <PUBCHEM_CONFORMER_DIVERSEORDER>
1

> <PUBCHEM_MMFF94_PARTIAL_CHARGES>
9
1 -0.36
17 0.45
2 -0.53
3 -0.57
4 0.34
5 0.49
6 -0.06
7 0.09
9 0.14

> <PUBCHEM_EFFECTIVE_ROTOR_COUNT>
0.4

> <PUBCHEM_PHARMACOPHORE_FEATURES>
4
1 1 acceptor
1 2 donor
1 3 acceptor
5 1 4 5 6 7 rings

> <PUBCHEM_HEAVY_ATOM_COUNT>
9

> <PUBCHEM_ATOM_DEF_STEREO_COUNT>
1

> <PUBCHEM_ATOM_UDEF_STEREO_COUNT>
0

> <PUBCHEM_BOND_DEF_STEREO_COUNT>
0

> <PUBCHEM_BOND_UDEF_STEREO_COUNT>
0

> <PUBCHEM_ISOTOPIC_ATOM_COUNT>
0

> <PUBCHEM_COMPONENT_COUNT>
1

> <PUBCHEM_CACTVS_TAUTO_COUNT>
7

> <PUBCHEM_CONFORMER_ID>
00A7F7A900000001

> <PUBCHEM_MMFF94_ENERGY>
9.7509

> <PUBCHEM_FEATURE_SELFOVERLAP>
20.297

> <PUBCHEM_SHAPE_FINGERPRINT>
16945 1 18339647741555592464
21040471 1 18410008823342905785
23552423 10 18261398887983851958
241688 4 17115791012206843570
2748010 2 18411425024468583470
5084963 1 17913500317673654880

> <PUBCHEM_SHAPE_MULTIPOLES>
167.61
2.7
1.87
0.67
0.21
0.58
0.02
-0.84
0.37
0.11
0.07
-0.11
-0.07
0.21

> <PUBCHEM_SHAPE_SELFOVERLAP>
343.223

> <PUBCHEM_SHAPE_VOLUME>
98.1

> <PUBCHEM_COORDINATE_TYPE>
2
5
10

$$$$
