11019061
  -OEChem-11232109453D

 27 27  0     1  0  0  0  0  0999 V2000
    2.9496    1.5355   -0.6412 O   0  0  0  0  0  0  0  0  0  0  0  0
    0.4610   -0.0408   -0.1705 C   0  0  2  0  0  0  0  0  0  0  0  0
   -0.2023    0.7160    0.9858 C   0  0  0  0  0  0  0  0  0  0  0  0
   -0.3767   -1.2747   -0.5459 C   0  0  0  0  0  0  0  0  0  0  0  0
   -1.6196    1.1651    0.6157 C   0  0  0  0  0  0  0  0  0  0  0  0
   -2.4234    0.1070   -0.0964 C   0  0  0  0  0  0  0  0  0  0  0  0
    1.8668   -0.4328    0.1717 C   0  0  0  0  0  0  0  0  0  0  0  0
   -1.8512   -0.9985   -0.6026 C   0  0  0  0  0  0  0  0  0  0  0  0
   -3.8976    0.3604   -0.2093 C   0  0  0  0  0  0  0  0  0  0  0  0
    2.9562    0.1158   -0.7056 C   0  0  0  0  0  0  0  0  0  0  0  0
    2.1371   -1.2529    1.1984 C   0  0  0  0  0  0  0  0  0  0  0  0
    0.4734    0.6296   -1.0419 H   0  0  0  0  0  0  0  0  0  0  0  0
    0.3913    1.5959    1.2644 H   0  0  0  0  0  0  0  0  0  0  0  0
   -0.2632    0.0831    1.8812 H   0  0  0  0  0  0  0  0  0  0  0  0
   -0.2309   -2.1042    0.1562 H   0  0  0  0  0  0  0  0  0  0  0  0
   -0.0508   -1.6383   -1.5290 H   0  0  0  0  0  0  0  0  0  0  0  0
   -1.5624    2.0500   -0.0305 H   0  0  0  0  0  0  0  0  0  0  0  0
   -2.1358    1.4707    1.5337 H   0  0  0  0  0  0  0  0  0  0  0  0
   -2.4656   -1.7493   -1.0926 H   0  0  0  0  0  0  0  0  0  0  0  0
   -4.0807    1.2980   -0.7441 H   0  0  0  0  0  0  0  0  0  0  0  0
   -4.3480    0.4335    0.7858 H   0  0  0  0  0  0  0  0  0  0  0  0
   -4.4140   -0.4388   -0.7514 H   0  0  0  0  0  0  0  0  0  0  0  0
    3.9466   -0.2354   -0.3970 H   0  0  0  0  0  0  0  0  0  0  0  0
    2.7932   -0.1910   -1.7443 H   0  0  0  0  0  0  0  0  0  0  0  0
    3.1578   -1.5382    1.4325 H   0  0  0  0  0  0  0  0  0  0  0  0
    1.3600   -1.6603    1.8355 H   0  0  0  0  0  0  0  0  0  0  0  0
    3.6517    1.8515   -1.2352 H   0  0  0  0  0  0  0  0  0  0  0  0
  1 10  1  0  0  0  0
  1 27  1  0  0  0  0
  2  3  1  0  0  0  0
  2  4  1  0  0  0  0
  2  7  1  0  0  0  0
  2 12  1  0  0  0  0
  3  5  1  0  0  0  0
  3 13  1  0  0  0  0
  3 14  1  0  0  0  0
  4  8  1  0  0  0  0
  4 15  1  0  0  0  0
  4 16  1  0  0  0  0
  5  6  1  0  0  0  0
  5 17  1  0  0  0  0
  5 18  1  0  0  0  0
  6  8  2  0  0  0  0
  6  9  1  0  0  0  0
  7 10  1  0  0  0  0
  7 11  2  0  0  0  0
  8 19  1  0  0  0  0
  9 20  1  0  0  0  0
  9 21  1  0  0  0  0
  9 22  1  0  0  0  0
 10 23  1  0  0  0  0
 10 24  1  0  0  0  0
 11 25  1  0  0  0  0
 11 26  1  0  0  0  0
M  END
> <PUBCHEM_COMPOUND_CID>
11019061

> <PUBCHEM_CONFORMER_RMSD>
0.6

> <PUBCHEM_CONFORMER_DIVERSEORDER>
1
10
6
13
3
12
7
9
8
11
2
4
5

> <PUBCHEM_MMFF94_PARTIAL_CHARGES>
14
1 -0.68
10 0.42
11 -0.3
19 0.15
2 0.14
25 0.15
26 0.15
27 0.4
4 0.14
5 0.14
6 -0.28
7 -0.28
8 -0.29
9 0.14

> <PUBCHEM_EFFECTIVE_ROTOR_COUNT>
2.8

> <PUBCHEM_PHARMACOPHORE_FEATURES>
4
1 1 acceptor
1 1 donor
1 11 hydrophobe
6 2 3 4 5 6 8 rings

> <PUBCHEM_HEAVY_ATOM_COUNT>
11

> <PUBCHEM_ATOM_DEF_STEREO_COUNT>
1

> <PUBCHEM_ATOM_UDEF_STEREO_COUNT>
0

> <PUBCHEM_BOND_DEF_STEREO_COUNT>
0

> <PUBCHEM_BOND_UDEF_STEREO_COUNT>
0

> <PUBCHEM_ISOTOPIC_ATOM_COUNT>
0

> <PUBCHEM_COMPONENT_COUNT>
1

> <PUBCHEM_CACTVS_TAUTO_COUNT>
1

> <PUBCHEM_CONFORMER_ID>
00A8233500000001

> <PUBCHEM_MMFF94_ENERGY>
9.8377

> <PUBCHEM_FEATURE_SELFOVERLAP>
20.297

> <PUBCHEM_SHAPE_FINGERPRINT>
10857977 72 17489009514164677011
11031198 65 17313394426218105430
12897270 3 18059581312270301444
12932764 1 17821727208602071799
13538477 17 18411130359584152614
14325111 11 18411700971985680591
14993402 34 18412830178859293669
15310529 11 18040429975856513329
15775835 57 18334018315041143884
16945 1 17846491522237964611
18186145 218 18113899329839474559
19026448 4 17022903420042508251
20645464 45 16486673823489509026
20645476 183 18409166631880326487
21040471 1 17845090662482254283
21293036 1 18131353029000609325
23235685 24 18131632262062303271
23402655 69 17700679672606341693
23552423 10 18195799897998160653
2748010 2 17700394047957220339
3248919 1 18342734083453126023
369184 2 17531247236197425707
5084963 1 17773882999643844482
53812653 8 18272376343171474561
7364860 26 18271522014490012522

> <PUBCHEM_SHAPE_MULTIPOLES>
220.51
5.32
1.36
1.01
1.28
0.04
-0.18
0.85
0.85
-0.28
0.01
-0.5
-0.04
-0.77

> <PUBCHEM_SHAPE_SELFOVERLAP>
434.619

> <PUBCHEM_SHAPE_VOLUME>
131.7

> <PUBCHEM_COORDINATE_TYPE>
2
5
10

$$$$
