110543
  -OEChem-11232109123D

 23 23  0     0  0  0  0  0  0999 V2000
   -0.8613   -0.0033   -0.8846 O   0  0  0  0  0  0  0  0  0  0  0  0
    2.4148   -1.1885    0.2867 O   0  0  0  0  0  0  0  0  0  0  0  0
    0.5794    2.3441   -0.4016 O   0  0  0  0  0  0  0  0  0  0  0  0
   -1.6131    0.0096    1.3161 O   0  0  0  0  0  0  0  0  0  0  0  0
    0.4359   -0.0265   -0.4259 C   0  0  0  0  0  0  0  0  0  0  0  0
    1.1039   -1.1722   -0.1787 C   0  0  0  0  0  0  0  0  0  0  0  0
   -3.1804    0.0418   -0.5391 C   0  0  0  0  0  0  0  0  0  0  0  0
    1.1313    1.2691   -0.1953 C   0  0  0  0  0  0  0  0  0  0  0  0
   -1.8134    0.0178    0.1086 C   0  0  0  0  0  0  0  0  0  0  0  0
    0.5265   -2.5401   -0.3688 C   0  0  0  0  0  0  0  0  0  0  0  0
   -4.3006    0.0370    0.4866 C   0  0  0  0  0  0  0  0  0  0  0  0
    2.5208    1.2074    0.2961 C   0  0  0  0  0  0  0  0  0  0  0  0
    3.0560    0.0039    0.5000 C   0  0  0  0  0  0  0  0  0  0  0  0
   -3.2555    0.9442   -1.1549 H   0  0  0  0  0  0  0  0  0  0  0  0
   -3.2747   -0.8404   -1.1812 H   0  0  0  0  0  0  0  0  0  0  0  0
    1.1563   -3.1211   -1.0505 H   0  0  0  0  0  0  0  0  0  0  0  0
   -0.4837   -2.5226   -0.7879 H   0  0  0  0  0  0  0  0  0  0  0  0
    0.4834   -3.0655    0.5907 H   0  0  0  0  0  0  0  0  0  0  0  0
   -4.2371    0.9119    1.1422 H   0  0  0  0  0  0  0  0  0  0  0  0
   -4.2530   -0.8575    1.1165 H   0  0  0  0  0  0  0  0  0  0  0  0
   -5.2744    0.0530   -0.0123 H   0  0  0  0  0  0  0  0  0  0  0  0
    3.0641    2.1255    0.4776 H   0  0  0  0  0  0  0  0  0  0  0  0
    4.0632   -0.1528    0.8582 H   0  0  0  0  0  0  0  0  0  0  0  0
  1  5  1  0  0  0  0
  1  9  1  0  0  0  0
  2  6  1  0  0  0  0
  2 13  1  0  0  0  0
  3  8  2  0  0  0  0
  4  9  2  0  0  0  0
  5  6  2  0  0  0  0
  5  8  1  0  0  0  0
  6 10  1  0  0  0  0
  7  9  1  0  0  0  0
  7 11  1  0  0  0  0
  7 14  1  0  0  0  0
  7 15  1  0  0  0  0
  8 12  1  0  0  0  0
 10 16  1  0  0  0  0
 10 17  1  0  0  0  0
 10 18  1  0  0  0  0
 11 19  1  0  0  0  0
 11 20  1  0  0  0  0
 11 21  1  0  0  0  0
 12 13  2  0  0  0  0
 12 22  1  0  0  0  0
 13 23  1  0  0  0  0
M  END
> <PUBCHEM_COMPOUND_CID>
110543

> <PUBCHEM_CONFORMER_RMSD>
0.6

> <PUBCHEM_CONFORMER_DIVERSEORDER>
2
15
17
18
16
20
8
14
19
6
21
12
3
10
7
1
9
11
5
13
4

> <PUBCHEM_MMFF94_PARTIAL_CHARGES>
14
1 -0.23
10 0.14
12 -0.14
13 -0.07
2 -0.15
22 0.15
23 0.15
3 -0.57
4 -0.57
5 0.09
6 -0.06
7 0.06
8 0.54
9 0.66

> <PUBCHEM_EFFECTIVE_ROTOR_COUNT>
3

> <PUBCHEM_PHARMACOPHORE_FEATURES>
5
1 11 hydrophobe
1 2 acceptor
1 3 acceptor
1 4 acceptor
6 2 5 6 8 12 13 rings

> <PUBCHEM_HEAVY_ATOM_COUNT>
13

> <PUBCHEM_ATOM_DEF_STEREO_COUNT>
0

> <PUBCHEM_ATOM_UDEF_STEREO_COUNT>
0

> <PUBCHEM_BOND_DEF_STEREO_COUNT>
0

> <PUBCHEM_BOND_UDEF_STEREO_COUNT>
0

> <PUBCHEM_ISOTOPIC_ATOM_COUNT>
0

> <PUBCHEM_COMPONENT_COUNT>
1

> <PUBCHEM_CACTVS_TAUTO_COUNT>
3

> <PUBCHEM_CONFORMER_ID>
0001AFCF00000002

> <PUBCHEM_MMFF94_ENERGY>
24.0924

> <PUBCHEM_FEATURE_SELFOVERLAP>
25.373

> <PUBCHEM_SHAPE_FINGERPRINT>
10219947 1 18410290311156759692
10980938 120 18411135827050789463
11471102 22 18335423456435987288
12423570 1 11050128847829269892
14251717 144 18411130347010363863
14993402 34 18412829118266005164
15207287 21 17894624855552101803
15501101 241 18260266339172223381
15775835 57 17917711348276200049
161256 15 18198909098101949526
16945 1 18410859858232695268
193761 8 17762895464246982708
20201158 50 18187364303082322827
20645477 70 18339351969134115159
20871998 22 18054229834696652422
2748010 2 18051111615788802564
528886 8 18339914995964008506
53812653 11 18413109463772013582
63268167 104 18343579655265990168
77492 1 17703780436211913535

> <PUBCHEM_SHAPE_MULTIPOLES>
244.06
5.42
1.92
0.86
5.14
0.5
0.09
-0.58
1.13
-1.27
-0.3
0.27
-0.02
-0.03

> <PUBCHEM_SHAPE_SELFOVERLAP>
498.85

> <PUBCHEM_SHAPE_VOLUME>
140.4

> <PUBCHEM_COORDINATE_TYPE>
2
5
10

$$$$
