110664
  -OEChem-11232108443D

 34 35  0     1  0  0  0  0  0999 V2000
   -1.7519    0.8876   -0.2426 O   0  0  0  0  0  0  0  0  0  0  0  0
    1.8248   -0.6608    0.0160 C   0  0  0  0  0  0  0  0  0  0  0  0
   -0.3661    0.8310    0.2074 C   0  0  1  0  0  0  0  0  0  0  0  0
    0.2860   -0.5569    0.0588 C   0  0  0  0  0  0  0  0  0  0  0  0
    2.4213    0.4826   -0.8437 C   0  0  0  0  0  0  0  0  0  0  0  0
    0.3504    1.8746   -0.6693 C   0  0  0  0  0  0  0  0  0  0  0  0
    1.8642    1.8635   -0.5178 C   0  0  0  0  0  0  0  0  0  0  0  0
    2.4091   -0.6187    1.4432 C   0  0  0  0  0  0  0  0  0  0  0  0
    2.3251   -1.9854   -0.6196 C   0  0  0  0  0  0  0  0  0  0  0  0
   -0.4093    1.2940    1.6752 C   0  0  0  0  0  0  0  0  0  0  0  0
   -0.5235   -1.6269   -0.0526 C   0  0  0  0  0  0  0  0  0  0  0  0
   -2.5022   -0.2651   -0.1670 C   0  0  0  0  0  0  0  0  0  0  0  0
   -1.9507   -1.4788   -0.0464 C   0  0  0  0  0  0  0  0  0  0  0  0
   -3.9772   -0.0407   -0.2416 C   0  0  0  0  0  0  0  0  0  0  0  0
    2.2267    0.2801   -1.9063 H   0  0  0  0  0  0  0  0  0  0  0  0
    3.5134    0.5070   -0.7340 H   0  0  0  0  0  0  0  0  0  0  0  0
   -0.0341    2.8793   -0.4494 H   0  0  0  0  0  0  0  0  0  0  0  0
    0.0958    1.6977   -1.7242 H   0  0  0  0  0  0  0  0  0  0  0  0
    2.1565    2.1720    0.4909 H   0  0  0  0  0  0  0  0  0  0  0  0
    2.3005    2.5986   -1.2044 H   0  0  0  0  0  0  0  0  0  0  0  0
    3.4855   -0.8292    1.4321 H   0  0  0  0  0  0  0  0  0  0  0  0
    2.2922    0.3538    1.9238 H   0  0  0  0  0  0  0  0  0  0  0  0
    1.9356   -1.3687    2.0875 H   0  0  0  0  0  0  0  0  0  0  0  0
    2.0795   -2.8549    0.0008 H   0  0  0  0  0  0  0  0  0  0  0  0
    1.8932   -2.1415   -1.6151 H   0  0  0  0  0  0  0  0  0  0  0  0
    3.4158   -1.9782   -0.7359 H   0  0  0  0  0  0  0  0  0  0  0  0
    0.5726    1.5385    2.0820 H   0  0  0  0  0  0  0  0  0  0  0  0
   -1.0371    2.1877    1.7785 H   0  0  0  0  0  0  0  0  0  0  0  0
   -0.8614    0.5284    2.3168 H   0  0  0  0  0  0  0  0  0  0  0  0
   -0.1521   -2.6396   -0.1513 H   0  0  0  0  0  0  0  0  0  0  0  0
   -2.5544   -2.3781    0.0065 H   0  0  0  0  0  0  0  0  0  0  0  0
   -4.3040    0.5994    0.5843 H   0  0  0  0  0  0  0  0  0  0  0  0
   -4.5405   -0.9778   -0.1843 H   0  0  0  0  0  0  0  0  0  0  0  0
   -4.2378    0.4516   -1.1840 H   0  0  0  0  0  0  0  0  0  0  0  0
  1  3  1  0  0  0  0
  1 12  1  0  0  0  0
  2  4  1  0  0  0  0
  2  5  1  0  0  0  0
  2  8  1  0  0  0  0
  2  9  1  0  0  0  0
  3  4  1  0  0  0  0
  3  6  1  0  0  0  0
  3 10  1  0  0  0  0
  4 11  2  0  0  0  0
  5  7  1  0  0  0  0
  5 15  1  0  0  0  0
  5 16  1  0  0  0  0
  6  7  1  0  0  0  0
  6 17  1  0  0  0  0
  6 18  1  0  0  0  0
  7 19  1  0  0  0  0
  7 20  1  0  0  0  0
  8 21  1  0  0  0  0
  8 22  1  0  0  0  0
  8 23  1  0  0  0  0
  9 24  1  0  0  0  0
  9 25  1  0  0  0  0
  9 26  1  0  0  0  0
 10 27  1  0  0  0  0
 10 28  1  0  0  0  0
 10 29  1  0  0  0  0
 11 13  1  0  0  0  0
 11 30  1  0  0  0  0
 12 13  2  0  0  0  0
 12 14  1  0  0  0  0
 13 31  1  0  0  0  0
 14 32  1  0  0  0  0
 14 33  1  0  0  0  0
 14 34  1  0  0  0  0
M  END
> <PUBCHEM_COMPOUND_CID>
110664

> <PUBCHEM_CONFORMER_RMSD>
0.4

> <PUBCHEM_CONFORMER_DIVERSEORDER>
1
3
2

> <PUBCHEM_MMFF94_PARTIAL_CHARGES>
10
1 -0.36
11 -0.15
12 -0.06
13 -0.15
14 0.14
2 0.14
3 0.42
30 0.15
31 0.15
4 -0.28

> <PUBCHEM_EFFECTIVE_ROTOR_COUNT>
1

> <PUBCHEM_PHARMACOPHORE_FEATURES>
4
1 1 acceptor
3 2 8 9 hydrophobe
6 1 3 4 11 12 13 rings
6 2 3 4 5 6 7 rings

> <PUBCHEM_HEAVY_ATOM_COUNT>
14

> <PUBCHEM_ATOM_DEF_STEREO_COUNT>
0

> <PUBCHEM_ATOM_UDEF_STEREO_COUNT>
1

> <PUBCHEM_BOND_DEF_STEREO_COUNT>
0

> <PUBCHEM_BOND_UDEF_STEREO_COUNT>
0

> <PUBCHEM_ISOTOPIC_ATOM_COUNT>
0

> <PUBCHEM_COMPONENT_COUNT>
1

> <PUBCHEM_CACTVS_TAUTO_COUNT>
1

> <PUBCHEM_CONFORMER_ID>
0001B04800000001

> <PUBCHEM_MMFF94_ENERGY>
38.7771

> <PUBCHEM_FEATURE_SELFOVERLAP>
20.325

> <PUBCHEM_SHAPE_FINGERPRINT>
10130415 120 18334007281259552379
12423570 1 13013854746699993418
12524768 44 18408609175100145870
13380535 21 18190756421182207999
13571099 22 18342176639853467711
14128692 85 18411984675770888557
14181834 199 18262505009260224870
144361 1 18337964488053396640
14617773 55 17845108293454827953
14817 1 8856828361332216040
14993402 34 18336271166958156390
15001771 113 18270691844018070880
15219459 52 18408892814703430990
15775835 57 18114470062152330148
16945 1 18411702118494054773
17990270 104 18337675312042367542
18186145 218 17821728317215265615
193761 8 14014503764921274967
20201158 50 18411701001750089703
20511035 2 18125147488357834443
20559304 39 18408321081636847770
20645477 70 18335697278409146183
21501502 16 18192144013457101367
22344851 341 18048315836449215288
2334 1 18120936363282001975
23419403 2 17690225618221009008
23552423 10 18044939214654656815
23559900 14 18054805129088073036
241688 4 17978517429537144522
2748010 2 17906447727912640687
5084963 1 18126568920764241114
528886 8 18262516025804028365
53812654 25 18272076219204165039
63268167 104 18334868228839181588
7364860 26 18341613745934938260

> <PUBCHEM_SHAPE_MULTIPOLES>
282.24
4.45
2.08
1.11
3.1
0.05
-0.46
-0.83
0.54
-0.82
0.26
-0.49
0.24
-0.26

> <PUBCHEM_SHAPE_SELFOVERLAP>
585.335

> <PUBCHEM_SHAPE_VOLUME>
161.2

> <PUBCHEM_COORDINATE_TYPE>
2
5
10

$$$$
