110740
  -OEChem-11232109153D

 26 25  0     1  0  0  0  0  0999 V2000
    1.0080   -0.3916    0.3310 O   0  0  0  0  0  0  0  0  0  0  0  0
    3.0725    0.4942   -0.2077 O   0  0  0  0  0  0  0  0  0  0  0  0
   -1.0126    0.8085    0.8325 C   0  0  0  0  0  0  0  0  0  0  0  0
   -1.8543   -0.0164   -0.1416 C   0  0  0  0  0  0  0  0  0  0  0  0
    0.4594    0.9237    0.4225 C   0  0  2  0  0  0  0  0  0  0  0  0
   -3.3033   -0.1269    0.3349 C   0  0  0  0  0  0  0  0  0  0  0  0
    0.6698    1.6256   -0.9124 C   0  0  0  0  0  0  0  0  0  0  0  0
   -4.1388   -0.9721   -0.6133 C   0  0  0  0  0  0  0  0  0  0  0  0
    2.3321   -0.4561    0.0066 C   0  0  0  0  0  0  0  0  0  0  0  0
    2.7673   -1.8890   -0.0525 C   0  0  0  0  0  0  0  0  0  0  0  0
   -1.4429    1.8115    0.9398 H   0  0  0  0  0  0  0  0  0  0  0  0
   -1.0603    0.3289    1.8186 H   0  0  0  0  0  0  0  0  0  0  0  0
   -1.8378    0.4442   -1.1361 H   0  0  0  0  0  0  0  0  0  0  0  0
   -1.4313   -1.0227   -0.2445 H   0  0  0  0  0  0  0  0  0  0  0  0
    0.9829    1.4737    1.2151 H   0  0  0  0  0  0  0  0  0  0  0  0
   -3.3340   -0.5750    1.3349 H   0  0  0  0  0  0  0  0  0  0  0  0
   -3.7467    0.8726    0.4131 H   0  0  0  0  0  0  0  0  0  0  0  0
    1.6556    2.0917   -0.9934 H   0  0  0  0  0  0  0  0  0  0  0  0
   -0.0472    2.4461   -1.0306 H   0  0  0  0  0  0  0  0  0  0  0  0
    0.5524    0.9428   -1.7610 H   0  0  0  0  0  0  0  0  0  0  0  0
   -4.1550   -0.5355   -1.6170 H   0  0  0  0  0  0  0  0  0  0  0  0
   -3.7407   -1.9891   -0.6869 H   0  0  0  0  0  0  0  0  0  0  0  0
   -5.1707   -1.0366   -0.2542 H   0  0  0  0  0  0  0  0  0  0  0  0
    2.1945   -2.4187   -0.8178 H   0  0  0  0  0  0  0  0  0  0  0  0
    2.6308   -2.3583    0.9250 H   0  0  0  0  0  0  0  0  0  0  0  0
    3.8276   -1.9354   -0.3166 H   0  0  0  0  0  0  0  0  0  0  0  0
  1  5  1  0  0  0  0
  1  9  1  0  0  0  0
  2  9  2  0  0  0  0
  3  4  1  0  0  0  0
  3  5  1  0  0  0  0
  3 11  1  0  0  0  0
  3 12  1  0  0  0  0
  4  6  1  0  0  0  0
  4 13  1  0  0  0  0
  4 14  1  0  0  0  0
  5  7  1  0  0  0  0
  5 15  1  0  0  0  0
  6  8  1  0  0  0  0
  6 16  1  0  0  0  0
  6 17  1  0  0  0  0
  7 18  1  0  0  0  0
  7 19  1  0  0  0  0
  7 20  1  0  0  0  0
  8 21  1  0  0  0  0
  8 22  1  0  0  0  0
  8 23  1  0  0  0  0
  9 10  1  0  0  0  0
 10 24  1  0  0  0  0
 10 25  1  0  0  0  0
 10 26  1  0  0  0  0
M  END
> <PUBCHEM_COMPOUND_CID>
110740

> <PUBCHEM_CONFORMER_RMSD>
0.6

> <PUBCHEM_CONFORMER_DIVERSEORDER>
16
60
23
9
34
51
80
40
52
29
79
2
72
61
37
62
67
49
24
3
64
13
48
50
69
46
74
47
39
18
76
65
26
71
21
17
33
77
10
32
45
44
30
78
81
55
57
14
20
25
75
58
15
66
41
5
11
43
8
73
42
31
63
1
4
38
22
70
36
59
54
27
19
53
28
6
12
68
56
35
7

> <PUBCHEM_MMFF94_PARTIAL_CHARGES>
5
1 -0.43
10 0.06
2 -0.57
5 0.28
9 0.66

> <PUBCHEM_EFFECTIVE_ROTOR_COUNT>
5

> <PUBCHEM_PHARMACOPHORE_FEATURES>
2
1 2 acceptor
1 8 hydrophobe

> <PUBCHEM_HEAVY_ATOM_COUNT>
10

> <PUBCHEM_ATOM_DEF_STEREO_COUNT>
0

> <PUBCHEM_ATOM_UDEF_STEREO_COUNT>
1

> <PUBCHEM_BOND_DEF_STEREO_COUNT>
0

> <PUBCHEM_BOND_UDEF_STEREO_COUNT>
0

> <PUBCHEM_ISOTOPIC_ATOM_COUNT>
0

> <PUBCHEM_COMPONENT_COUNT>
1

> <PUBCHEM_CACTVS_TAUTO_COUNT>
1

> <PUBCHEM_CONFORMER_ID>
0001B09400000010

> <PUBCHEM_MMFF94_ENERGY>
9.3568

> <PUBCHEM_FEATURE_SELFOVERLAP>
10.148

> <PUBCHEM_SHAPE_FINGERPRINT>
10857977 72 15339122342526216793
11769659 78 18342736282560667179
12932764 1 17346588673364902969
14128692 85 18412829100896348689
14251717 144 18335700580537038894
14350558 41 18342742931296674479
14390081 3 8358255943261510043
15477762 27 18335139834086469695
15757776 16 18334010575599844498
177051 138 17989488519825937927
18186145 218 16298393435221829965
20201158 50 18261114092681105491
20281407 28 18273494568055999475
20645477 70 18409725145454368679
20653085 51 10881696662782340240
20711985 344 17461156552450343532
21293036 1 17603587443278138489
22485316 2 18273209807524343643
581208 293 18411416232791691978

> <PUBCHEM_SHAPE_MULTIPOLES>
194.06
6.28
1.57
0.84
4.17
0.2
-0.04
3.25
-0.82
-0.93
-0.24
0.2
-0.18
-0.42

> <PUBCHEM_SHAPE_SELFOVERLAP>
354.919

> <PUBCHEM_SHAPE_VOLUME>
123.6

> <PUBCHEM_COORDINATE_TYPE>
2
5
10

$$$$
