110867
  -OEChem-11232109073D

 25 25  0     1  0  0  0  0  0999 V2000
    2.0052    0.2083   -0.4739 O   0  0  0  0  0  0  0  0  0  0  0  0
    0.9530    0.5368    1.5562 O   0  0  0  0  0  0  0  0  0  0  0  0
   -0.0784   -0.8280   -0.1534 C   0  0  1  0  0  0  0  0  0  0  0  0
   -0.6083   -0.1962   -1.4533 C   0  0  0  0  0  0  0  0  0  0  0  0
   -1.2233   -1.0124    0.8663 C   0  0  0  0  0  0  0  0  0  0  0  0
   -1.3393    1.1306   -1.2111 C   0  0  0  0  0  0  0  0  0  0  0  0
    0.5829   -2.1797   -0.4501 C   0  0  0  0  0  0  0  0  0  0  0  0
   -2.1741    0.1484    0.9280 C   0  0  0  0  0  0  0  0  0  0  0  0
    1.0002    0.0516    0.4340 C   0  0  0  0  0  0  0  0  0  0  0  0
   -2.2171    1.1155    0.0024 C   0  0  0  0  0  0  0  0  0  0  0  0
    3.0993    1.0252   -0.0451 C   0  0  0  0  0  0  0  0  0  0  0  0
   -1.3120   -0.8967   -1.9250 H   0  0  0  0  0  0  0  0  0  0  0  0
    0.1902   -0.0342   -2.1878 H   0  0  0  0  0  0  0  0  0  0  0  0
   -0.8225   -1.1957    1.8711 H   0  0  0  0  0  0  0  0  0  0  0  0
   -1.8156   -1.8998    0.6075 H   0  0  0  0  0  0  0  0  0  0  0  0
   -1.9458    1.3662   -2.0933 H   0  0  0  0  0  0  0  0  0  0  0  0
   -0.6104    1.9424   -1.1017 H   0  0  0  0  0  0  0  0  0  0  0  0
    1.3656   -2.1016   -1.2134 H   0  0  0  0  0  0  0  0  0  0  0  0
    1.0443   -2.6019    0.4505 H   0  0  0  0  0  0  0  0  0  0  0  0
   -0.1528   -2.9040   -0.8179 H   0  0  0  0  0  0  0  0  0  0  0  0
   -2.8563    0.1928    1.7721 H   0  0  0  0  0  0  0  0  0  0  0  0
   -2.9204    1.9342    0.1238 H   0  0  0  0  0  0  0  0  0  0  0  0
    3.5780    0.5854    0.8349 H   0  0  0  0  0  0  0  0  0  0  0  0
    2.7519    2.0403    0.1697 H   0  0  0  0  0  0  0  0  0  0  0  0
    3.8297    1.0686   -0.8574 H   0  0  0  0  0  0  0  0  0  0  0  0
  1  9  1  0  0  0  0
  1 11  1  0  0  0  0
  2  9  2  0  0  0  0
  3  4  1  0  0  0  0
  3  5  1  0  0  0  0
  3  7  1  0  0  0  0
  3  9  1  0  0  0  0
  4  6  1  0  0  0  0
  4 12  1  0  0  0  0
  4 13  1  0  0  0  0
  5  8  1  0  0  0  0
  5 14  1  0  0  0  0
  5 15  1  0  0  0  0
  6 10  1  0  0  0  0
  6 16  1  0  0  0  0
  6 17  1  0  0  0  0
  7 18  1  0  0  0  0
  7 19  1  0  0  0  0
  7 20  1  0  0  0  0
  8 10  2  0  0  0  0
  8 21  1  0  0  0  0
 10 22  1  0  0  0  0
 11 23  1  0  0  0  0
 11 24  1  0  0  0  0
 11 25  1  0  0  0  0
M  END
> <PUBCHEM_COMPOUND_CID>
110867

> <PUBCHEM_CONFORMER_RMSD>
0.6

> <PUBCHEM_CONFORMER_DIVERSEORDER>
1
3
6
4
2
5

> <PUBCHEM_MMFF94_PARTIAL_CHARGES>
11
1 -0.43
10 -0.29
11 0.28
2 -0.57
21 0.15
22 0.15
3 0.06
5 0.14
6 0.14
8 -0.29
9 0.66

> <PUBCHEM_EFFECTIVE_ROTOR_COUNT>
2.8

> <PUBCHEM_PHARMACOPHORE_FEATURES>
2
1 2 acceptor
6 3 4 5 6 8 10 rings

> <PUBCHEM_HEAVY_ATOM_COUNT>
11

> <PUBCHEM_ATOM_DEF_STEREO_COUNT>
0

> <PUBCHEM_ATOM_UDEF_STEREO_COUNT>
1

> <PUBCHEM_BOND_DEF_STEREO_COUNT>
0

> <PUBCHEM_BOND_UDEF_STEREO_COUNT>
0

> <PUBCHEM_ISOTOPIC_ATOM_COUNT>
0

> <PUBCHEM_COMPONENT_COUNT>
1

> <PUBCHEM_CACTVS_TAUTO_COUNT>
1

> <PUBCHEM_CONFORMER_ID>
0001B11300000001

> <PUBCHEM_MMFF94_ENERGY>
17.2968

> <PUBCHEM_FEATURE_SELFOVERLAP>
10.148

> <PUBCHEM_SHAPE_FINGERPRINT>
10702982 57 9795534201262999030
12423570 1 12226647542388675527
13024252 1 14996826827504592342
137420 1 12634602764720978587
13839132 238 17969789570607705061
15557651 10 18060138730189956785
15775835 57 17846777386423578733
16945 1 17604162517797622853
19837323 101 18410289250511042228
20653085 51 16558753454899007856
21028194 46 18335415751285971460
21922407 69 16588848170477636393
23235685 24 18409726244665179521
369184 2 15574984113412387996
5084963 1 17988640856289822701

> <PUBCHEM_SHAPE_MULTIPOLES>
214.64
3.26
1.59
1.32
1.6
0.65
0.03
-1.63
-0.44
0.11
0.29
-0.27
-0.08
0.37

> <PUBCHEM_SHAPE_SELFOVERLAP>
430.877

> <PUBCHEM_SHAPE_VOLUME>
125.2

> <PUBCHEM_COORDINATE_TYPE>
2
5
10

$$$$
