11084346
  -OEChem-11232108443D

 32 32  0     1  0  0  0  0  0999 V2000
   -1.7350    1.3252   -0.2972 O   0  0  0  0  0  0  0  0  0  0  0  0
   -0.9941   -0.8968   -0.4734 O   0  0  0  0  0  0  0  0  0  0  0  0
   -0.6673    0.4749   -0.7363 C   0  0  0  0  0  0  0  0  0  0  0  0
   -2.8425    0.4356   -0.1239 C   0  0  1  0  0  0  0  0  0  0  0  0
   -2.1687   -0.8393    0.3441 C   0  0  1  0  0  0  0  0  0  0  0  0
    0.6077    0.8518   -0.0066 C   0  0  0  0  0  0  0  0  0  0  0  0
    1.7860   -0.0213   -0.4424 C   0  0  0  0  0  0  0  0  0  0  0  0
    3.0770    0.3850    0.2702 C   0  0  0  0  0  0  0  0  0  0  0  0
   -3.8322    1.0189    0.8642 C   0  0  0  0  0  0  0  0  0  0  0  0
   -2.9989   -2.0925    0.1538 C   0  0  0  0  0  0  0  0  0  0  0  0
    4.2452   -0.5105   -0.1420 C   0  0  0  0  0  0  0  0  0  0  0  0
    5.5229   -0.1312    0.5894 C   0  0  0  0  0  0  0  0  0  0  0  0
   -0.5489    0.5969   -1.8187 H   0  0  0  0  0  0  0  0  0  0  0  0
   -3.3162    0.3045   -1.1049 H   0  0  0  0  0  0  0  0  0  0  0  0
   -1.8369   -0.7588    1.3869 H   0  0  0  0  0  0  0  0  0  0  0  0
    0.4585    0.7425    1.0753 H   0  0  0  0  0  0  0  0  0  0  0  0
    0.8311    1.9113   -0.1805 H   0  0  0  0  0  0  0  0  0  0  0  0
    1.5717   -1.0746   -0.2255 H   0  0  0  0  0  0  0  0  0  0  0  0
    1.9252    0.0638   -1.5270 H   0  0  0  0  0  0  0  0  0  0  0  0
    3.3135    1.4303    0.0371 H   0  0  0  0  0  0  0  0  0  0  0  0
    2.9316    0.3209    1.3555 H   0  0  0  0  0  0  0  0  0  0  0  0
   -4.6809    0.3480    1.0242 H   0  0  0  0  0  0  0  0  0  0  0  0
   -3.3538    1.2185    1.8293 H   0  0  0  0  0  0  0  0  0  0  0  0
   -4.2103    1.9800    0.4996 H   0  0  0  0  0  0  0  0  0  0  0  0
   -2.4180   -2.9782    0.4322 H   0  0  0  0  0  0  0  0  0  0  0  0
   -3.9082   -2.0665    0.7610 H   0  0  0  0  0  0  0  0  0  0  0  0
   -3.2803   -2.2222   -0.8970 H   0  0  0  0  0  0  0  0  0  0  0  0
    4.0065   -1.5583    0.0745 H   0  0  0  0  0  0  0  0  0  0  0  0
    4.4109   -0.4320   -1.2228 H   0  0  0  0  0  0  0  0  0  0  0  0
    5.8077    0.9030    0.3707 H   0  0  0  0  0  0  0  0  0  0  0  0
    6.3453   -0.7830    0.2786 H   0  0  0  0  0  0  0  0  0  0  0  0
    5.3999   -0.2324    1.6725 H   0  0  0  0  0  0  0  0  0  0  0  0
  1  3  1  0  0  0  0
  1  4  1  0  0  0  0
  2  3  1  0  0  0  0
  2  5  1  0  0  0  0
  3  6  1  0  0  0  0
  3 13  1  0  0  0  0
  4  5  1  0  0  0  0
  4  9  1  0  0  0  0
  4 14  1  0  0  0  0
  5 10  1  0  0  0  0
  5 15  1  0  0  0  0
  6  7  1  0  0  0  0
  6 16  1  0  0  0  0
  6 17  1  0  0  0  0
  7  8  1  0  0  0  0
  7 18  1  0  0  0  0
  7 19  1  0  0  0  0
  8 11  1  0  0  0  0
  8 20  1  0  0  0  0
  8 21  1  0  0  0  0
  9 22  1  0  0  0  0
  9 23  1  0  0  0  0
  9 24  1  0  0  0  0
 10 25  1  0  0  0  0
 10 26  1  0  0  0  0
 10 27  1  0  0  0  0
 11 12  1  0  0  0  0
 11 28  1  0  0  0  0
 11 29  1  0  0  0  0
 12 30  1  0  0  0  0
 12 31  1  0  0  0  0
 12 32  1  0  0  0  0
M  END
> <PUBCHEM_COMPOUND_CID>
11084346

> <PUBCHEM_CONFORMER_RMSD>
0.6

> <PUBCHEM_CONFORMER_DIVERSEORDER>
1
74
47
80
59
32
45
65
36
2
79
77
43
9
68
23
3
71
55
75
13
76
78
22
44
50
12
58
14
19
54
66
34
73
30
57
40
27
46
67
17
4
69
48
28
72
8
64
25
63
35
51
20
33
15
18
37
61
31
41
16
56
60
5
62
11
38
42
70
6
39
49
52
26
53
24
10
29
21
7

> <PUBCHEM_MMFF94_PARTIAL_CHARGES>
5
1 -0.56
2 -0.56
3 0.56
4 0.28
5 0.28

> <PUBCHEM_EFFECTIVE_ROTOR_COUNT>
5

> <PUBCHEM_PHARMACOPHORE_FEATURES>
5
1 1 acceptor
1 12 hydrophobe
1 2 acceptor
4 6 7 8 11 hydrophobe
5 1 2 3 4 5 rings

> <PUBCHEM_HEAVY_ATOM_COUNT>
12

> <PUBCHEM_ATOM_DEF_STEREO_COUNT>
0

> <PUBCHEM_ATOM_UDEF_STEREO_COUNT>
2

> <PUBCHEM_BOND_DEF_STEREO_COUNT>
0

> <PUBCHEM_BOND_UDEF_STEREO_COUNT>
0

> <PUBCHEM_ISOTOPIC_ATOM_COUNT>
0

> <PUBCHEM_COMPONENT_COUNT>
1

> <PUBCHEM_CACTVS_TAUTO_COUNT>
1

> <PUBCHEM_CONFORMER_ID>
00A9223A00000001

> <PUBCHEM_MMFF94_ENERGY>
13.4238

> <PUBCHEM_FEATURE_SELFOVERLAP>
25.412

> <PUBCHEM_SHAPE_FINGERPRINT>
10680689 15 17675922084355665788
114248 4 12035452735886235544
12251169 10 18409454678315047337
124424 183 17918272047577106984
12932764 1 17385992979903247324
13214271 11 18131630092861245364
13675066 3 17847061090999622694
15375462 189 17821725018632883816
18186145 218 13334736855784254372
19050596 39 18334296483241111524
19422 9 18261117429949510364
20279233 1 17917717893906391294
20281475 54 18260548952584227614
20645464 45 18060143132610329333
20645477 70 13262669298013316488
20828058 44 18410292515013104738
22169311 14 18201438090551553328
22485316 2 18333728009964931378
23402539 116 18273491278686239157
42 15 18408885127323679854
5104073 3 18410855507916368744
57265010 4 18343867710048105161

> <PUBCHEM_SHAPE_MULTIPOLES>
235.22
9.46
1.43
0.8
12.12
0.56
-0.04
0.96
-2.5
-1.78
-0.07
-0.09
-0.07
-0.1

> <PUBCHEM_SHAPE_SELFOVERLAP>
447.145

> <PUBCHEM_SHAPE_VOLUME>
147.1

> <PUBCHEM_COORDINATE_TYPE>
2
5
10

$$$$
