11094875
  -OEChem-11232108463D

 27 27  0     1  0  0  0  0  0999 V2000
   -1.3943   -0.6967   -0.0910 O   0  0  0  0  0  0  0  0  0  0  0  0
   -3.4220   -1.7231    0.2250 O   0  0  0  0  0  0  0  0  0  0  0  0
   -0.9662    0.6404   -0.3847 C   0  0  2  0  0  0  0  0  0  0  0  0
    0.3864    0.8997    0.2510 C   0  0  0  0  0  0  0  0  0  0  0  0
   -2.0657    1.5175    0.1706 C   0  0  0  0  0  0  0  0  0  0  0  0
    1.4733    0.0197   -0.3660 C   0  0  0  0  0  0  0  0  0  0  0  0
   -3.2976    0.6783   -0.0723 C   0  0  0  0  0  0  0  0  0  0  0  0
    2.8413    0.3082    0.2542 C   0  0  0  0  0  0  0  0  0  0  0  0
   -2.7553   -0.7146    0.0526 C   0  0  0  0  0  0  0  0  0  0  0  0
    3.9224   -0.5951   -0.3387 C   0  0  0  0  0  0  0  0  0  0  0  0
    5.2776   -0.3344    0.2992 C   0  0  0  0  0  0  0  0  0  0  0  0
   -0.9035    0.7405   -1.4758 H   0  0  0  0  0  0  0  0  0  0  0  0
    0.3393    0.6935    1.3277 H   0  0  0  0  0  0  0  0  0  0  0  0
    0.6550    1.9557    0.1274 H   0  0  0  0  0  0  0  0  0  0  0  0
   -2.1122    2.5008   -0.3055 H   0  0  0  0  0  0  0  0  0  0  0  0
   -1.9378    1.6696    1.2498 H   0  0  0  0  0  0  0  0  0  0  0  0
    1.2244   -1.0383   -0.2198 H   0  0  0  0  0  0  0  0  0  0  0  0
    1.5196    0.1939   -1.4480 H   0  0  0  0  0  0  0  0  0  0  0  0
   -3.6937    0.8188   -1.0820 H   0  0  0  0  0  0  0  0  0  0  0  0
   -4.0686    0.8708    0.6771 H   0  0  0  0  0  0  0  0  0  0  0  0
    3.1074    1.3592    0.0882 H   0  0  0  0  0  0  0  0  0  0  0  0
    2.7913    0.1552    1.3393 H   0  0  0  0  0  0  0  0  0  0  0  0
    3.6529   -1.6471   -0.1891 H   0  0  0  0  0  0  0  0  0  0  0  0
    3.9944   -0.4290   -1.4199 H   0  0  0  0  0  0  0  0  0  0  0  0
    5.5922    0.7023    0.1419 H   0  0  0  0  0  0  0  0  0  0  0  0
    6.0358   -0.9899   -0.1404 H   0  0  0  0  0  0  0  0  0  0  0  0
    5.2474   -0.5248    1.3767 H   0  0  0  0  0  0  0  0  0  0  0  0
  1  3  1  0  0  0  0
  1  9  1  0  0  0  0
  2  9  2  0  0  0  0
  3  4  1  0  0  0  0
  3  5  1  0  0  0  0
  3 12  1  0  0  0  0
  4  6  1  0  0  0  0
  4 13  1  0  0  0  0
  4 14  1  0  0  0  0
  5  7  1  0  0  0  0
  5 15  1  0  0  0  0
  5 16  1  0  0  0  0
  6  8  1  0  0  0  0
  6 17  1  0  0  0  0
  6 18  1  0  0  0  0
  7  9  1  0  0  0  0
  7 19  1  0  0  0  0
  7 20  1  0  0  0  0
  8 10  1  0  0  0  0
  8 21  1  0  0  0  0
  8 22  1  0  0  0  0
 10 11  1  0  0  0  0
 10 23  1  0  0  0  0
 10 24  1  0  0  0  0
 11 25  1  0  0  0  0
 11 26  1  0  0  0  0
 11 27  1  0  0  0  0
M  END
> <PUBCHEM_COMPOUND_CID>
11094875

> <PUBCHEM_CONFORMER_RMSD>
0.6

> <PUBCHEM_CONFORMER_DIVERSEORDER>
1
35
18
12
36
29
6
30
13
31
2
24
4
27
33
10
19
38
5
34
26
16
21
37
15
8
32
14
25
7
22
3
17
23
9
28
11
20

> <PUBCHEM_MMFF94_PARTIAL_CHARGES>
5
1 -0.43
2 -0.57
3 0.28
7 0.06
9 0.66

> <PUBCHEM_EFFECTIVE_ROTOR_COUNT>
4.8

> <PUBCHEM_PHARMACOPHORE_FEATURES>
4
1 11 hydrophobe
1 2 acceptor
4 4 6 8 10 hydrophobe
5 1 3 5 7 9 rings

> <PUBCHEM_HEAVY_ATOM_COUNT>
11

> <PUBCHEM_ATOM_DEF_STEREO_COUNT>
1

> <PUBCHEM_ATOM_UDEF_STEREO_COUNT>
0

> <PUBCHEM_BOND_DEF_STEREO_COUNT>
0

> <PUBCHEM_BOND_UDEF_STEREO_COUNT>
0

> <PUBCHEM_ISOTOPIC_ATOM_COUNT>
0

> <PUBCHEM_COMPONENT_COUNT>
1

> <PUBCHEM_CACTVS_TAUTO_COUNT>
2

> <PUBCHEM_CONFORMER_ID>
00A94B5B00000001

> <PUBCHEM_MMFF94_ENERGY>
3.095

> <PUBCHEM_FEATURE_SELFOVERLAP>
20.297

> <PUBCHEM_SHAPE_FINGERPRINT>
10465860 250 18201715133369992872
12032990 46 18342742922775175156
124424 183 18060696169631850041
12757275 245 18335703874745676642
12932764 1 17458335325930544404
13237642 15 18201431524094969816
14252887 29 17203615865750172230
14325111 11 18411419509967900220
177051 138 18410293635825450222
17834072 33 18260272979872216420
17834074 16 18343023259696712126
18186145 218 13984668070277728724
190213 19 18343301449054797364
1986462 14 18408323267959707492
20279233 1 17846502512758575580
20645464 45 17632582638744707517
20645477 56 18263363594872293429
20645477 70 16701177448658399780
20828058 44 18411980239586603890
21061003 4 17346597495264665569
22485316 2 18334573512889611122
23402539 116 18335976510726762388
23559900 14 18270115696278969470
573450 72 18187635856990470152

> <PUBCHEM_SHAPE_MULTIPOLES>
214.64
8.93
1.31
0.67
10.11
0.15
0.01
2.27
-0.62
-1.42
-0.09
0.12
-0.02
0.17

> <PUBCHEM_SHAPE_SELFOVERLAP>
414.139

> <PUBCHEM_SHAPE_VOLUME>
132.7

> <PUBCHEM_COORDINATE_TYPE>
2
5
10

$$$$
