11095260
  -OEChem-11232109443D

 31 31  0     1  0  0  0  0  0999 V2000
    2.3617   -0.1234   -0.3330 O   0  0  0  0  0  0  0  0  0  0  0  0
    1.2438    1.5333    0.8256 O   0  0  0  0  0  0  0  0  0  0  0  0
   -1.2599    0.8343   -0.3372 C   0  0  0  0  0  0  0  0  0  0  0  0
    0.0508    0.0684   -0.6752 C   0  0  2  0  0  0  0  0  0  0  0  0
   -1.7478    0.5014    1.0966 C   0  0  0  0  0  0  0  0  0  0  0  0
   -1.8388   -1.0020    1.3724 C   0  0  0  0  0  0  0  0  0  0  0  0
   -0.0290   -1.4002   -0.3182 C   0  0  0  0  0  0  0  0  0  0  0  0
   -0.5279   -1.7236    1.0680 C   0  0  0  0  0  0  0  0  0  0  0  0
   -2.3533    0.4430   -1.3609 C   0  0  0  0  0  0  0  0  0  0  0  0
   -1.0558    2.3590   -0.4563 C   0  0  0  0  0  0  0  0  0  0  0  0
    1.2653    0.5973    0.0380 C   0  0  0  0  0  0  0  0  0  0  0  0
    0.2963   -2.3639   -1.1939 C   0  0  0  0  0  0  0  0  0  0  0  0
    3.5945    0.2763    0.2741 C   0  0  0  0  0  0  0  0  0  0  0  0
    0.2527    0.1995   -1.7483 H   0  0  0  0  0  0  0  0  0  0  0  0
   -2.7305    0.9564    1.2745 H   0  0  0  0  0  0  0  0  0  0  0  0
   -1.0721    0.9452    1.8384 H   0  0  0  0  0  0  0  0  0  0  0  0
   -2.6503   -1.4419    0.7806 H   0  0  0  0  0  0  0  0  0  0  0  0
   -2.1041   -1.1609    2.4244 H   0  0  0  0  0  0  0  0  0  0  0  0
   -0.6750   -2.8024    1.1978 H   0  0  0  0  0  0  0  0  0  0  0  0
    0.2324   -1.4227    1.7995 H   0  0  0  0  0  0  0  0  0  0  0  0
   -2.0654    0.7473   -2.3740 H   0  0  0  0  0  0  0  0  0  0  0  0
   -2.5357   -0.6357   -1.3855 H   0  0  0  0  0  0  0  0  0  0  0  0
   -3.3066    0.9312   -1.1280 H   0  0  0  0  0  0  0  0  0  0  0  0
   -0.4738    2.6162   -1.3483 H   0  0  0  0  0  0  0  0  0  0  0  0
   -2.0233    2.8687   -0.5474 H   0  0  0  0  0  0  0  0  0  0  0  0
   -0.5780    2.8101    0.4170 H   0  0  0  0  0  0  0  0  0  0  0  0
    0.6430   -2.1236   -2.1933 H   0  0  0  0  0  0  0  0  0  0  0  0
    0.2244   -3.4137   -0.9304 H   0  0  0  0  0  0  0  0  0  0  0  0
    3.8306    1.3106    0.0064 H   0  0  0  0  0  0  0  0  0  0  0  0
    4.3869   -0.3744   -0.1052 H   0  0  0  0  0  0  0  0  0  0  0  0
    3.5356    0.1614    1.3606 H   0  0  0  0  0  0  0  0  0  0  0  0
  1 11  1  0  0  0  0
  1 13  1  0  0  0  0
  2 11  2  0  0  0  0
  3  4  1  0  0  0  0
  3  5  1  0  0  0  0
  3  9  1  0  0  0  0
  3 10  1  0  0  0  0
  4  7  1  0  0  0  0
  4 11  1  0  0  0  0
  4 14  1  0  0  0  0
  5  6  1  0  0  0  0
  5 15  1  0  0  0  0
  5 16  1  0  0  0  0
  6  8  1  0  0  0  0
  6 17  1  0  0  0  0
  6 18  1  0  0  0  0
  7  8  1  0  0  0  0
  7 12  2  0  0  0  0
  8 19  1  0  0  0  0
  8 20  1  0  0  0  0
  9 21  1  0  0  0  0
  9 22  1  0  0  0  0
  9 23  1  0  0  0  0
 10 24  1  0  0  0  0
 10 25  1  0  0  0  0
 10 26  1  0  0  0  0
 12 27  1  0  0  0  0
 12 28  1  0  0  0  0
 13 29  1  0  0  0  0
 13 30  1  0  0  0  0
 13 31  1  0  0  0  0
M  END
> <PUBCHEM_COMPOUND_CID>
11095260

> <PUBCHEM_CONFORMER_RMSD>
0.6

> <PUBCHEM_CONFORMER_DIVERSEORDER>
7
12
2
17
14
8
6
10
5
9
16
13
3
1
15
11
4

> <PUBCHEM_MMFF94_PARTIAL_CHARGES>
10
1 -0.43
11 0.66
12 -0.3
13 0.28
2 -0.57
27 0.15
28 0.15
4 0.2
7 -0.28
8 0.14

> <PUBCHEM_EFFECTIVE_ROTOR_COUNT>
3

> <PUBCHEM_PHARMACOPHORE_FEATURES>
3
1 2 acceptor
3 3 9 10 hydrophobe
6 3 4 5 6 7 8 rings

> <PUBCHEM_HEAVY_ATOM_COUNT>
13

> <PUBCHEM_ATOM_DEF_STEREO_COUNT>
0

> <PUBCHEM_ATOM_UDEF_STEREO_COUNT>
1

> <PUBCHEM_BOND_DEF_STEREO_COUNT>
0

> <PUBCHEM_BOND_UDEF_STEREO_COUNT>
0

> <PUBCHEM_ISOTOPIC_ATOM_COUNT>
0

> <PUBCHEM_COMPONENT_COUNT>
1

> <PUBCHEM_CACTVS_TAUTO_COUNT>
1

> <PUBCHEM_CONFORMER_ID>
00A94CDC00000007

> <PUBCHEM_MMFF94_ENERGY>
30.917

> <PUBCHEM_FEATURE_SELFOVERLAP>
15.223

> <PUBCHEM_SHAPE_FINGERPRINT>
12138202 97 17821721711323533815
12423570 1 10537485111553248335
13024252 1 17095794516312752434
14817 1 16041875233478571411
15076042 46 18186526513945221864
15219459 28 18261399918570586475
15852999 172 16733823052561814099
15881359 60 17978495757200825123
16945 1 18187093831780039472
18185500 45 16541595855131077723
20653085 51 14548477841749568592
20871998 184 18338243768243900662
21922407 69 17345752950339121507
22344851 341 17687180889976613761
241688 4 15747256273899323642
2748010 2 18266178520437192236
369184 2 15195291940699027146
5084963 1 18261679271648420891

> <PUBCHEM_SHAPE_MULTIPOLES>
255.8
3.39
2.24
1.33
3.04
0.32
-0.04
-0.97
-0.25
-0.4
0.26
-0.66
0.4
0.65

> <PUBCHEM_SHAPE_SELFOVERLAP>
513.84

> <PUBCHEM_SHAPE_VOLUME>
150

> <PUBCHEM_COORDINATE_TYPE>
2
5
10

$$$$
