110977
  -OEChem-11232109443D

 39 39  0     1  0  0  0  0  0999 V2000
    2.5486   -0.6572    0.0192 O   0  0  0  0  0  0  0  0  0  0  0  0
    3.8069   -2.5246    0.0660 O   0  0  0  0  0  0  0  0  0  0  0  0
    2.4235    0.7316   -0.3624 C   0  0  1  0  0  0  0  0  0  0  0  0
    1.0845    1.2318    0.1628 C   0  0  0  0  0  0  0  0  0  0  0  0
    3.5716    1.5836    0.1544 C   0  0  0  0  0  0  0  0  0  0  0  0
   -0.0705    0.3566   -0.3230 C   0  0  0  0  0  0  0  0  0  0  0  0
   -1.4092    0.8428    0.2347 C   0  0  0  0  0  0  0  0  0  0  0  0
    4.8732    0.9494   -0.2915 C   0  0  0  0  0  0  0  0  0  0  0  0
   -2.5615   -0.0526   -0.2238 C   0  0  0  0  0  0  0  0  0  0  0  0
    4.9714   -0.4512    0.2761 C   0  0  0  0  0  0  0  0  0  0  0  0
   -3.9048    0.4536    0.3070 C   0  0  0  0  0  0  0  0  0  0  0  0
   -5.0594   -0.4248   -0.1802 C   0  0  0  0  0  0  0  0  0  0  0  0
    3.7410   -1.2972    0.0703 C   0  0  0  0  0  0  0  0  0  0  0  0
   -6.4313    0.0564    0.2972 C   0  0  0  0  0  0  0  0  0  0  0  0
   -7.5839   -0.7982   -0.2068 C   0  0  0  0  0  0  0  0  0  0  0  0
    2.4070    0.7558   -1.4595 H   0  0  0  0  0  0  0  0  0  0  0  0
    1.0928    1.2151    1.2603 H   0  0  0  0  0  0  0  0  0  0  0  0
    0.9239    2.2709   -0.1481 H   0  0  0  0  0  0  0  0  0  0  0  0
    3.4950    2.6072   -0.2284 H   0  0  0  0  0  0  0  0  0  0  0  0
    3.5509    1.6353    1.2501 H   0  0  0  0  0  0  0  0  0  0  0  0
   -0.1033    0.3656   -1.4193 H   0  0  0  0  0  0  0  0  0  0  0  0
    0.0803   -0.6840   -0.0130 H   0  0  0  0  0  0  0  0  0  0  0  0
   -1.3703    0.8550    1.3307 H   0  0  0  0  0  0  0  0  0  0  0  0
   -1.5895    1.8735   -0.0941 H   0  0  0  0  0  0  0  0  0  0  0  0
    4.9148    0.9137   -1.3871 H   0  0  0  0  0  0  0  0  0  0  0  0
    5.7244    1.5507    0.0459 H   0  0  0  0  0  0  0  0  0  0  0  0
   -2.5881   -0.0818   -1.3200 H   0  0  0  0  0  0  0  0  0  0  0  0
   -2.3919   -1.0791    0.1231 H   0  0  0  0  0  0  0  0  0  0  0  0
    5.8216   -0.9628   -0.1886 H   0  0  0  0  0  0  0  0  0  0  0  0
    5.1542   -0.4053    1.3560 H   0  0  0  0  0  0  0  0  0  0  0  0
   -4.0669    1.4860   -0.0256 H   0  0  0  0  0  0  0  0  0  0  0  0
   -3.8894    0.4649    1.4034 H   0  0  0  0  0  0  0  0  0  0  0  0
   -5.0540   -0.4524   -1.2771 H   0  0  0  0  0  0  0  0  0  0  0  0
   -4.9011   -1.4548    0.1627 H   0  0  0  0  0  0  0  0  0  0  0  0
   -6.4505    0.0669    1.3935 H   0  0  0  0  0  0  0  0  0  0  0  0
   -6.5884    1.0902   -0.0330 H   0  0  0  0  0  0  0  0  0  0  0  0
   -7.6192   -0.7996   -1.3008 H   0  0  0  0  0  0  0  0  0  0  0  0
   -8.5370   -0.4094    0.1651 H   0  0  0  0  0  0  0  0  0  0  0  0
   -7.4805   -1.8329    0.1349 H   0  0  0  0  0  0  0  0  0  0  0  0
  1  3  1  0  0  0  0
  1 13  1  0  0  0  0
  2 13  2  0  0  0  0
  3  4  1  0  0  0  0
  3  5  1  0  0  0  0
  3 16  1  0  0  0  0
  4  6  1  0  0  0  0
  4 17  1  0  0  0  0
  4 18  1  0  0  0  0
  5  8  1  0  0  0  0
  5 19  1  0  0  0  0
  5 20  1  0  0  0  0
  6  7  1  0  0  0  0
  6 21  1  0  0  0  0
  6 22  1  0  0  0  0
  7  9  1  0  0  0  0
  7 23  1  0  0  0  0
  7 24  1  0  0  0  0
  8 10  1  0  0  0  0
  8 25  1  0  0  0  0
  8 26  1  0  0  0  0
  9 11  1  0  0  0  0
  9 27  1  0  0  0  0
  9 28  1  0  0  0  0
 10 13  1  0  0  0  0
 10 29  1  0  0  0  0
 10 30  1  0  0  0  0
 11 12  1  0  0  0  0
 11 31  1  0  0  0  0
 11 32  1  0  0  0  0
 12 14  1  0  0  0  0
 12 33  1  0  0  0  0
 12 34  1  0  0  0  0
 14 15  1  0  0  0  0
 14 35  1  0  0  0  0
 14 36  1  0  0  0  0
 15 37  1  0  0  0  0
 15 38  1  0  0  0  0
 15 39  1  0  0  0  0
M  END
> <PUBCHEM_COMPOUND_CID>
110977

> <PUBCHEM_CONFORMER_RMSD>
0.8

> <PUBCHEM_CONFORMER_DIVERSEORDER>
1
241
45
232
103
13
215
107
249
5
202
262
36
248
25
240
29
208
168
52
83
225
3
41
30
135
210
22
229
34
213
178
128
250
106
79
27
222
134
186
16
10
206
231
2
129
204
6
257
42
37
223
145
4
235
228
258
44
11
181
96
251
170
126
142
265
133
17
68
218
73
59
216
87
157
122
69
211
12
234
98
111
40
205
245
156
112
221
18
58
54
140
47
224
260
255
26
99
28
192
171
261
131
63
43
51
55
24
252
179
78
187
62
253
263
61
80
219
72
46
101
74
115
154
71
141
102
110
64
180
217
57
23
32
230
200
212
130
242
38
49
150
254
89
176
207
39
82
183
9
88
20
199
153
91
105
256
151
94
160
227
147
7
116
165
76
53
220
21
66
243
109
8
65
108
239
90
196
14
48
137
33
35
198
163
188
159
236
143
173
95
185
238
127
31
125
197
209
75
237
124
162
120
144
81
169
117
19
259
114
60
15
77
70
104
97
86
56
155
233
247
139
164
203
244
123
264
93
50
132
174
149
214
189
84
146
85
100
158
136
167
226
161
182
113
177
152
67
195
119
175
190
138
246
92
201
193
172
121
118
148
166
191
194
184

> <PUBCHEM_MMFF94_PARTIAL_CHARGES>
5
1 -0.43
10 0.06
13 0.66
2 -0.57
3 0.28

> <PUBCHEM_EFFECTIVE_ROTOR_COUNT>
8

> <PUBCHEM_PHARMACOPHORE_FEATURES>
3
1 15 hydrophobe
1 2 acceptor
6 1 3 5 8 10 13 rings

> <PUBCHEM_HEAVY_ATOM_COUNT>
15

> <PUBCHEM_ATOM_DEF_STEREO_COUNT>
0

> <PUBCHEM_ATOM_UDEF_STEREO_COUNT>
1

> <PUBCHEM_BOND_DEF_STEREO_COUNT>
0

> <PUBCHEM_BOND_UDEF_STEREO_COUNT>
0

> <PUBCHEM_ISOTOPIC_ATOM_COUNT>
0

> <PUBCHEM_COMPONENT_COUNT>
1

> <PUBCHEM_CACTVS_TAUTO_COUNT>
1

> <PUBCHEM_CONFORMER_ID>
0001B18100000001

> <PUBCHEM_MMFF94_ENERGY>
9.0994

> <PUBCHEM_FEATURE_SELFOVERLAP>
15.223

> <PUBCHEM_SHAPE_FINGERPRINT>
10912923 1 17989495121459691001
11858739 19 18408602539945229903
12107183 9 17693948388335248721
13073987 5 18342457011108252225
13167823 11 18342455941523914007
13533116 47 18342176648301016531
1420 363 17458348546356573529
14251764 18 18131073749590788049
17834072 33 18341893008697646709
17834076 25 15339123450807179045
17844677 252 18335425651560583485
19427546 62 18190182480671350220
20645477 70 18335983078027397110
21267235 1 18342179925978118318
220451 1 18272655675318051375
23402539 116 18060415825096688669
23536379 177 18411700976797827097
23557571 272 17313098635778170820
29717793 49 17676207974775054285
3014965 18 18335977580769873775
33824 294 18334574629818744938
42630746 31 18408603660799955226
42788 4 18412263952420896613
465052 167 18272937119628838303
522135 26 18410293610140191828
5374978 207 17275383205180961248
57483677 66 18412824703282308815
6025842 7 18335144223996850540

> <PUBCHEM_SHAPE_MULTIPOLES>
296.95
17.61
1.57
0.66
29.09
0.7
0
4.4
0.1
-2.54
0.06
0.06
-0.04
-0.35

> <PUBCHEM_SHAPE_SELFOVERLAP>
564.729

> <PUBCHEM_SHAPE_VOLUME>
182.8

> <PUBCHEM_COORDINATE_TYPE>
2
5
10

$$$$
