110914
  -OEChem-11232108463D

 35 35  0     1  0  0  0  0  0999 V2000
   -5.4156    0.4795    0.5257 O   0  0  0  0  0  0  0  0  0  0  0  0
    4.0421    0.5968    0.3798 C   0  0  0  0  0  0  0  0  0  0  0  0
    3.4575   -0.5779   -0.4288 C   0  0  0  0  0  0  0  0  0  0  0  0
    1.9490   -0.6274   -0.4293 C   0  0  0  0  0  0  0  0  0  0  0  0
   -2.3115   -0.7672   -0.4307 C   0  0  0  0  0  0  0  0  0  0  0  0
   -0.8211   -0.7186   -0.4305 C   0  0  0  0  0  0  0  0  0  0  0  0
   -2.9857    0.3646    0.3760 C   0  0  1  0  0  0  0  0  0  0  0  0
    1.2477    0.0425   -1.4193 C   0  0  0  0  0  0  0  0  0  0  0  0
    1.2924   -1.3421    0.5600 C   0  0  0  0  0  0  0  0  0  0  0  0
    3.5090    1.9479   -0.1035 C   0  0  0  0  0  0  0  0  0  0  0  0
    3.7173    0.4161    1.8646 C   0  0  0  0  0  0  0  0  0  0  0  0
   -0.1466   -0.0033   -1.4199 C   0  0  0  0  0  0  0  0  0  0  0  0
   -0.1017   -1.3881    0.5595 C   0  0  0  0  0  0  0  0  0  0  0  0
   -3.0646    1.6713   -0.4113 C   0  0  0  0  0  0  0  0  0  0  0  0
   -4.3683   -0.0940    0.8077 C   0  0  0  0  0  0  0  0  0  0  0  0
    5.1321    0.5828    0.2571 H   0  0  0  0  0  0  0  0  0  0  0  0
    3.8564   -1.5285   -0.0503 H   0  0  0  0  0  0  0  0  0  0  0  0
    3.8130   -0.5124   -1.4661 H   0  0  0  0  0  0  0  0  0  0  0  0
   -2.6227   -1.7441   -0.0344 H   0  0  0  0  0  0  0  0  0  0  0  0
   -2.6852   -0.7650   -1.4641 H   0  0  0  0  0  0  0  0  0  0  0  0
   -2.4303    0.5478    1.3046 H   0  0  0  0  0  0  0  0  0  0  0  0
    1.7614    0.5973   -2.1989 H   0  0  0  0  0  0  0  0  0  0  0  0
    1.8413   -1.8730    1.3324 H   0  0  0  0  0  0  0  0  0  0  0  0
    2.4475    2.0888    0.1225 H   0  0  0  0  0  0  0  0  0  0  0  0
    3.6591    2.0661   -1.1816 H   0  0  0  0  0  0  0  0  0  0  0  0
    4.0508    2.7612    0.3926 H   0  0  0  0  0  0  0  0  0  0  0  0
    4.2695    1.1534    2.4585 H   0  0  0  0  0  0  0  0  0  0  0  0
    2.6556    0.5625    2.0854 H   0  0  0  0  0  0  0  0  0  0  0  0
    4.0163   -0.5762    2.2185 H   0  0  0  0  0  0  0  0  0  0  0  0
   -0.6940    0.5189   -2.1999 H   0  0  0  0  0  0  0  0  0  0  0  0
   -0.6154   -1.9479    1.3365 H   0  0  0  0  0  0  0  0  0  0  0  0
   -3.5994    1.5357   -1.3578 H   0  0  0  0  0  0  0  0  0  0  0  0
   -2.0675    2.0628   -0.6332 H   0  0  0  0  0  0  0  0  0  0  0  0
   -3.5981    2.4386    0.1607 H   0  0  0  0  0  0  0  0  0  0  0  0
   -4.3860   -1.0004    1.4384 H   0  0  0  0  0  0  0  0  0  0  0  0
  1 15  2  0  0  0  0
  2  3  1  0  0  0  0
  2 10  1  0  0  0  0
  2 11  1  0  0  0  0
  2 16  1  0  0  0  0
  3  4  1  0  0  0  0
  3 17  1  0  0  0  0
  3 18  1  0  0  0  0
  4  8  2  0  0  0  0
  4  9  1  0  0  0  0
  5  6  1  0  0  0  0
  5  7  1  0  0  0  0
  5 19  1  0  0  0  0
  5 20  1  0  0  0  0
  6 12  2  0  0  0  0
  6 13  1  0  0  0  0
  7 14  1  0  0  0  0
  7 15  1  0  0  0  0
  7 21  1  0  0  0  0
  8 12  1  0  0  0  0
  8 22  1  0  0  0  0
  9 13  2  0  0  0  0
  9 23  1  0  0  0  0
 10 24  1  0  0  0  0
 10 25  1  0  0  0  0
 10 26  1  0  0  0  0
 11 27  1  0  0  0  0
 11 28  1  0  0  0  0
 11 29  1  0  0  0  0
 12 30  1  0  0  0  0
 13 31  1  0  0  0  0
 14 32  1  0  0  0  0
 14 33  1  0  0  0  0
 14 34  1  0  0  0  0
 15 35  1  0  0  0  0
M  END
> <PUBCHEM_COMPOUND_CID>
110914

> <PUBCHEM_CONFORMER_RMSD>
0.6

> <PUBCHEM_CONFORMER_DIVERSEORDER>
1
4
23
11
6
9
17
26
15
24
8
18
21
2
5
10
3
16
19
22
12
14
13
7
25
20

> <PUBCHEM_MMFF94_PARTIAL_CHARGES>
16
1 -0.57
12 -0.15
13 -0.15
15 0.45
22 0.15
23 0.15
3 0.14
30 0.15
31 0.15
35 0.06
4 -0.14
5 0.14
6 -0.14
7 0.06
8 -0.15
9 -0.15

> <PUBCHEM_EFFECTIVE_ROTOR_COUNT>
5

> <PUBCHEM_PHARMACOPHORE_FEATURES>
4
1 1 acceptor
1 14 hydrophobe
3 2 10 11 hydrophobe
6 4 6 8 9 12 13 rings

> <PUBCHEM_HEAVY_ATOM_COUNT>
15

> <PUBCHEM_ATOM_DEF_STEREO_COUNT>
0

> <PUBCHEM_ATOM_UDEF_STEREO_COUNT>
1

> <PUBCHEM_BOND_DEF_STEREO_COUNT>
0

> <PUBCHEM_BOND_UDEF_STEREO_COUNT>
0

> <PUBCHEM_ISOTOPIC_ATOM_COUNT>
0

> <PUBCHEM_COMPONENT_COUNT>
1

> <PUBCHEM_CACTVS_TAUTO_COUNT>
2

> <PUBCHEM_CONFORMER_ID>
0001B14200000001

> <PUBCHEM_MMFF94_ENERGY>
31.6393

> <PUBCHEM_FEATURE_SELFOVERLAP>
20.297

> <PUBCHEM_SHAPE_FINGERPRINT>
10465860 71 11023822898584619498
106641 1 17023191586314781904
11132069 177 18040440996953896767
11769659 78 11241961590609502550
11796584 16 12396297067317707137
12251169 10 17240486930802856438
12507560 40 18262799549691012519
12596602 18 17313387863155084704
12616999 72 14548741672868752221
12644460 14 15647349575444081972
12670546 177 13254786975708690912
12892183 10 17240477013887030272
13081056 2 18341616992518802845
13675066 3 18186806855045389215
13705890 14 8142084265065188590
14251764 30 16083597134961981218
14252887 29 15719386218758049226
14289901 80 18270678791734238834
14350558 41 11891334227394562538
14911166 2 13470688148364511238
14993402 34 11455890264927087351
15342816 4 8214152862788217080
16945 1 17022616494515364222
17862501 102 17313106371493974083
1798214 20 8790889574887380768
18186145 218 18202003209595321454
18222031 100 16732989729811224463
193927 3 13335008340851852224
19862831 5 12751520682306397455
200 152 17749106708488985775
20432913 95 14490470876479938008
20645477 56 18060138755980827255
20871999 31 14548439388775713341
21119208 17 11167938044148509271
212847 35 17989771098846503704
21501925 9 16370727028147911031
21503847 285 18409735066976333500
21652331 79 18412545413995974601
22485316 2 12613044915297457447
22854114 59 18333170561516430603
231179 274 17846776295522660016
23382010 3 14764051402869015670
23402539 116 18201715155024034663
23402655 69 13470408850962593411
23557571 272 17702394025005995655
23559900 14 18201445770338408406
26918003 58 16805614676892651179
2748010 2 17097754786932474662
2838139 119 17274809282103446976
3060560 45 11959728235661622116
4047638 21 18060424603329158150
4463277 69 11602811389729364752
465052 167 14924235923172295507
474 4 18342180011318431456
4990 188 12175621771865356373
5374978 207 18040720259943224817
6333272 397 18335142011571721696
76465 3 9294750665974143196

> <PUBCHEM_SHAPE_MULTIPOLES>
302.82
9.15
1.49
1.3
5.97
0.42
-0.1
3.46
-3.35
-0.42
-0.03
-0.72
0.04
0.19

> <PUBCHEM_SHAPE_SELFOVERLAP>
608.46

> <PUBCHEM_SHAPE_VOLUME>
178.2

> <PUBCHEM_COORDINATE_TYPE>
2
5
10

$$$$
