111044
  -OEChem-11232109183D

 35 36  0     1  0  0  0  0  0999 V2000
    0.1924   -1.3076   -1.5405 O   0  0  0  0  0  0  0  0  0  0  0  0
    0.5006    0.8570   -0.4294 C   0  0  1  0  0  0  0  0  0  0  0  0
   -0.1434   -0.5754   -0.3495 C   0  0  1  0  0  0  0  0  0  0  0  0
   -1.7007   -0.4910   -0.2550 C   0  0  2  0  0  0  0  0  0  0  0  0
   -0.0101    1.7321    0.7476 C   0  0  0  0  0  0  0  0  0  0  0  0
    2.0526    0.7659   -0.3822 C   0  0  0  0  0  0  0  0  0  0  0  0
    0.4563   -1.3950    0.8219 C   0  0  0  0  0  0  0  0  0  0  0  0
   -2.1684    0.4153    0.8932 C   0  0  0  0  0  0  0  0  0  0  0  0
   -1.5336    1.7995    0.8356 C   0  0  0  0  0  0  0  0  0  0  0  0
    2.5970   -0.0631    0.7755 C   0  0  0  0  0  0  0  0  0  0  0  0
    1.9829   -1.4526    0.7948 C   0  0  0  0  0  0  0  0  0  0  0  0
    0.1605    1.5752   -1.7629 C   0  0  0  0  0  0  0  0  0  0  0  0
   -2.3861   -1.8602   -0.1491 C   0  0  0  0  0  0  0  0  0  0  0  0
   -2.0689   -0.0617   -1.1963 H   0  0  0  0  0  0  0  0  0  0  0  0
    0.3847    2.7521    0.6560 H   0  0  0  0  0  0  0  0  0  0  0  0
    0.3654    1.3511    1.7039 H   0  0  0  0  0  0  0  0  0  0  0  0
    2.4863    1.7730   -0.3303 H   0  0  0  0  0  0  0  0  0  0  0  0
    2.4211    0.3240   -1.3179 H   0  0  0  0  0  0  0  0  0  0  0  0
    0.1021   -2.4322    0.7876 H   0  0  0  0  0  0  0  0  0  0  0  0
    0.1399   -0.9853    1.7872 H   0  0  0  0  0  0  0  0  0  0  0  0
   -1.9399   -0.0479    1.8606 H   0  0  0  0  0  0  0  0  0  0  0  0
   -3.2594    0.5252    0.8572 H   0  0  0  0  0  0  0  0  0  0  0  0
   -1.9377    2.3549   -0.0182 H   0  0  0  0  0  0  0  0  0  0  0  0
   -1.8193    2.3656    1.7301 H   0  0  0  0  0  0  0  0  0  0  0  0
    2.4082    0.4418    1.7292 H   0  0  0  0  0  0  0  0  0  0  0  0
    3.6860   -0.1474    0.6814 H   0  0  0  0  0  0  0  0  0  0  0  0
    2.3184   -2.0161   -0.0843 H   0  0  0  0  0  0  0  0  0  0  0  0
    2.3433   -2.0000    1.6735 H   0  0  0  0  0  0  0  0  0  0  0  0
    0.6027    2.5781   -1.7898 H   0  0  0  0  0  0  0  0  0  0  0  0
    0.5540    1.0240   -2.6244 H   0  0  0  0  0  0  0  0  0  0  0  0
   -0.9149    1.6913   -1.9191 H   0  0  0  0  0  0  0  0  0  0  0  0
   -3.4747   -1.7401   -0.1932 H   0  0  0  0  0  0  0  0  0  0  0  0
   -2.1043   -2.5219   -0.9730 H   0  0  0  0  0  0  0  0  0  0  0  0
   -2.1567   -2.3620    0.7959 H   0  0  0  0  0  0  0  0  0  0  0  0
   -0.0480   -2.2404   -1.4157 H   0  0  0  0  0  0  0  0  0  0  0  0
  1  3  1  0  0  0  0
  1 35  1  0  0  0  0
  2  3  1  0  0  0  0
  2  5  1  0  0  0  0
  2  6  1  0  0  0  0
  2 12  1  0  0  0  0
  3  4  1  0  0  0  0
  3  7  1  0  0  0  0
  4  8  1  0  0  0  0
  4 13  1  0  0  0  0
  4 14  1  0  0  0  0
  5  9  1  0  0  0  0
  5 15  1  0  0  0  0
  5 16  1  0  0  0  0
  6 10  1  0  0  0  0
  6 17  1  0  0  0  0
  6 18  1  0  0  0  0
  7 11  1  0  0  0  0
  7 19  1  0  0  0  0
  7 20  1  0  0  0  0
  8  9  1  0  0  0  0
  8 21  1  0  0  0  0
  8 22  1  0  0  0  0
  9 23  1  0  0  0  0
  9 24  1  0  0  0  0
 10 11  1  0  0  0  0
 10 25  1  0  0  0  0
 10 26  1  0  0  0  0
 11 27  1  0  0  0  0
 11 28  1  0  0  0  0
 12 29  1  0  0  0  0
 12 30  1  0  0  0  0
 12 31  1  0  0  0  0
 13 32  1  0  0  0  0
 13 33  1  0  0  0  0
 13 34  1  0  0  0  0
M  END
> <PUBCHEM_COMPOUND_CID>
111044

> <PUBCHEM_CONFORMER_RMSD>
0.6

> <PUBCHEM_CONFORMER_DIVERSEORDER>
1
2

> <PUBCHEM_MMFF94_PARTIAL_CHARGES>
3
1 -0.68
3 0.28
35 0.4

> <PUBCHEM_EFFECTIVE_ROTOR_COUNT>
1.6

> <PUBCHEM_PHARMACOPHORE_FEATURES>
4
1 1 acceptor
1 1 donor
6 2 3 4 5 8 9 rings
6 2 3 6 7 10 11 rings

> <PUBCHEM_HEAVY_ATOM_COUNT>
13

> <PUBCHEM_ATOM_DEF_STEREO_COUNT>
3

> <PUBCHEM_ATOM_UDEF_STEREO_COUNT>
0

> <PUBCHEM_BOND_DEF_STEREO_COUNT>
0

> <PUBCHEM_BOND_UDEF_STEREO_COUNT>
0

> <PUBCHEM_ISOTOPIC_ATOM_COUNT>
0

> <PUBCHEM_COMPONENT_COUNT>
1

> <PUBCHEM_CACTVS_TAUTO_COUNT>
1

> <PUBCHEM_CONFORMER_ID>
0001B1C400000001

> <PUBCHEM_MMFF94_ENERGY>
34.9916

> <PUBCHEM_FEATURE_SELFOVERLAP>
20.352

> <PUBCHEM_SHAPE_FINGERPRINT>
12423570 1 8599896695644510780
13024252 1 15070600553156374322
137420 1 11304534917383792532
13839132 238 17629772166575227657
141345 1 11221496002455677564
14761567 1 17325785058642294575
14817 1 14589822098588993708
15001771 113 18408881824019342058
15076042 46 18056754334757592704
15775835 57 18343032098254000433
15881359 60 17686585010456017473
16945 1 18411700950263034800
18185500 45 18409167739912881659
20653091 64 18116156755902081483
22344851 12 15432821769593204917
23419403 2 17548923062382521749
241688 4 18114451293197935544
2748010 2 17038376597586981962
5084963 1 18045499978548832823
54276843 12 18266181823388154406
63268167 104 18260823834395729226
68250623 7 18340498759418941790

> <PUBCHEM_SHAPE_MULTIPOLES>
261.66
3.05
2.15
1.34
0.17
0.05
-0.39
-0.81
0.76
-0.45
0.01
0.03
0.29
-0.66

> <PUBCHEM_SHAPE_SELFOVERLAP>
532.238

> <PUBCHEM_SHAPE_VOLUME>
151

> <PUBCHEM_COORDINATE_TYPE>
2
5
10

$$$$
