11105826
  -OEChem-11232108553D

 32 32  0     1  0  0  0  0  0999 V2000
   -1.0558    0.6210    0.1137 O   0  0  0  0  0  0  0  0  0  0  0  0
   -3.3770    0.1223    0.2377 O   0  0  0  0  0  0  0  0  0  0  0  0
   -0.7285   -0.7027   -0.3207 C   0  0  1  0  0  0  0  0  0  0  0  0
    0.6642   -1.0383    0.1911 C   0  0  0  0  0  0  0  0  0  0  0  0
   -1.7733   -1.6854    0.2119 C   0  0  0  0  0  0  0  0  0  0  0  0
    1.7013   -0.0341   -0.3104 C   0  0  0  0  0  0  0  0  0  0  0  0
   -3.1703   -1.2249   -0.1853 C   0  0  0  0  0  0  0  0  0  0  0  0
    3.0943   -0.3558    0.2336 C   0  0  0  0  0  0  0  0  0  0  0  0
   -2.3744    0.9869   -0.3024 C   0  0  1  0  0  0  0  0  0  0  0  0
    4.1382    0.6280   -0.2942 C   0  0  0  0  0  0  0  0  0  0  0  0
   -2.6485    2.3916    0.2073 C   0  0  0  0  0  0  0  0  0  0  0  0
    5.5296    0.2915    0.2177 C   0  0  0  0  0  0  0  0  0  0  0  0
   -0.7255   -0.7187   -1.4186 H   0  0  0  0  0  0  0  0  0  0  0  0
    0.9433   -2.0515   -0.1220 H   0  0  0  0  0  0  0  0  0  0  0  0
    0.6676   -1.0209    1.2885 H   0  0  0  0  0  0  0  0  0  0  0  0
   -1.7207   -1.7014    1.3080 H   0  0  0  0  0  0  0  0  0  0  0  0
   -1.5834   -2.7003   -0.1527 H   0  0  0  0  0  0  0  0  0  0  0  0
    1.7221   -0.0471   -1.4069 H   0  0  0  0  0  0  0  0  0  0  0  0
    1.4289    0.9830   -0.0049 H   0  0  0  0  0  0  0  0  0  0  0  0
   -3.3186   -1.2912   -1.2694 H   0  0  0  0  0  0  0  0  0  0  0  0
   -3.9281   -1.8515    0.2950 H   0  0  0  0  0  0  0  0  0  0  0  0
    3.0791   -0.3235    1.3298 H   0  0  0  0  0  0  0  0  0  0  0  0
    3.3737   -1.3763   -0.0557 H   0  0  0  0  0  0  0  0  0  0  0  0
   -2.4329    0.9864   -1.3987 H   0  0  0  0  0  0  0  0  0  0  0  0
    4.1461    0.6110   -1.3902 H   0  0  0  0  0  0  0  0  0  0  0  0
    3.8776    1.6477    0.0127 H   0  0  0  0  0  0  0  0  0  0  0  0
   -3.6500    2.7253   -0.0820 H   0  0  0  0  0  0  0  0  0  0  0  0
   -2.5963    2.4214    1.3016 H   0  0  0  0  0  0  0  0  0  0  0  0
   -1.9062    3.0992   -0.1752 H   0  0  0  0  0  0  0  0  0  0  0  0
    5.5650    0.3293    1.3112 H   0  0  0  0  0  0  0  0  0  0  0  0
    6.2601    1.0081   -0.1707 H   0  0  0  0  0  0  0  0  0  0  0  0
    5.8337   -0.7104   -0.1018 H   0  0  0  0  0  0  0  0  0  0  0  0
  1  3  1  0  0  0  0
  1  9  1  0  0  0  0
  2  7  1  0  0  0  0
  2  9  1  0  0  0  0
  3  4  1  0  0  0  0
  3  5  1  0  0  0  0
  3 13  1  0  0  0  0
  4  6  1  0  0  0  0
  4 14  1  0  0  0  0
  4 15  1  0  0  0  0
  5  7  1  0  0  0  0
  5 16  1  0  0  0  0
  5 17  1  0  0  0  0
  6  8  1  0  0  0  0
  6 18  1  0  0  0  0
  6 19  1  0  0  0  0
  7 20  1  0  0  0  0
  7 21  1  0  0  0  0
  8 10  1  0  0  0  0
  8 22  1  0  0  0  0
  8 23  1  0  0  0  0
  9 11  1  0  0  0  0
  9 24  1  0  0  0  0
 10 12  1  0  0  0  0
 10 25  1  0  0  0  0
 10 26  1  0  0  0  0
 11 27  1  0  0  0  0
 11 28  1  0  0  0  0
 11 29  1  0  0  0  0
 12 30  1  0  0  0  0
 12 31  1  0  0  0  0
 12 32  1  0  0  0  0
M  END
> <PUBCHEM_COMPOUND_CID>
11105826

> <PUBCHEM_CONFORMER_RMSD>
0.6

> <PUBCHEM_CONFORMER_DIVERSEORDER>
2
125
48
97
124
93
78
144
34
42
118
121
148
66
72
49
140
142
145
122
69
129
130
12
89
83
133
24
141
68
126
15
50
20
91
11
131
104
109
71
146
138
4
117
110
111
57
74
56
135
103
16
46
96
18
136
132
147
101
1
39
80
123
119
87
100
79
115
143
58
76
30
5
64
108
82
51
134
14
73
106
36
29
52
33
137
139
128
55
105
149
10
26
38
92
61
63
19
114
47
127
25
53
59
23
54
75
40
41
37
60
35
62
86
113
70
67
88
81
90
107
116
112
84
9
102
13
99
32
8
77
94
45
98
17
28
22
44
65
85
6
31
21
43
27
95
120
3
7

> <PUBCHEM_MMFF94_PARTIAL_CHARGES>
5
1 -0.56
2 -0.56
3 0.28
7 0.28
9 0.56

> <PUBCHEM_EFFECTIVE_ROTOR_COUNT>
5.2

> <PUBCHEM_PHARMACOPHORE_FEATURES>
5
1 1 acceptor
1 12 hydrophobe
1 2 acceptor
4 4 6 8 10 hydrophobe
6 1 2 3 5 7 9 rings

> <PUBCHEM_HEAVY_ATOM_COUNT>
12

> <PUBCHEM_ATOM_DEF_STEREO_COUNT>
0

> <PUBCHEM_ATOM_UDEF_STEREO_COUNT>
2

> <PUBCHEM_BOND_DEF_STEREO_COUNT>
0

> <PUBCHEM_BOND_UDEF_STEREO_COUNT>
0

> <PUBCHEM_ISOTOPIC_ATOM_COUNT>
0

> <PUBCHEM_COMPONENT_COUNT>
1

> <PUBCHEM_CACTVS_TAUTO_COUNT>
1

> <PUBCHEM_CONFORMER_ID>
00A9762200000002

> <PUBCHEM_MMFF94_ENERGY>
10.3221

> <PUBCHEM_FEATURE_SELFOVERLAP>
25.407

> <PUBCHEM_SHAPE_FINGERPRINT>
10608611 8 18341894061048913372
10680689 15 18341900722743870366
12346645 44 18334293145756337906
12932764 1 17489575779970247534
13024252 1 11386362647772568791
13897977 58 18335425694230142340
14325111 11 18410012104935179822
15219456 202 18130515132447414190
15501527 16 18342179942514714672
1741750 31 18270683039235043393
17802600 8 18339920510755082284
17834072 32 18265615377284660725
20300324 65 18341328980517510630
20510252 161 18342742888399593369
20645477 56 18412268298263083989
20645477 70 16773527577456665534
2306618 200 18130515188213053675
23380061 127 18410571807919686198
23402539 116 18339635737306824767
23500284 214 18270688562605236169
23557571 272 18131078142324356804
23559900 14 18128818543699719286
4175511 318 17704071819572752630
573450 72 18262224565524207586
77779 3 18410012135437787782

> <PUBCHEM_SHAPE_MULTIPOLES>
235.22
8.98
1.78
0.66
12.81
0.68
-0.01
1.96
0.33
-2.27
0.12
0.05
0
-0.17

> <PUBCHEM_SHAPE_SELFOVERLAP>
444.75

> <PUBCHEM_SHAPE_VOLUME>
144.9

> <PUBCHEM_COORDINATE_TYPE>
2
5
10

$$$$
