111274
  -OEChem-11232109263D

 27 27  0     1  0  0  0  0  0999 V2000
   -3.1379   -0.1423    0.7427 O   0  0  0  0  0  0  0  0  0  0  0  0
   -1.9431    0.0310   -0.0260 C   0  0  2  0  0  0  0  0  0  0  0  0
   -1.2364   -1.3368   -0.0646 C   0  0  0  0  0  0  0  0  0  0  0  0
    0.2279   -1.2151   -0.4816 C   0  0  0  0  0  0  0  0  0  0  0  0
    1.0042   -0.2966    0.4794 C   0  0  2  0  0  0  0  0  0  0  0  0
   -1.0885    1.0825    0.6352 C   0  0  0  0  0  0  0  0  0  0  0  0
    0.2235    0.9316    0.8693 C   0  0  0  0  0  0  0  0  0  0  0  0
   -2.3514    0.4933   -1.4284 C   0  0  0  0  0  0  0  0  0  0  0  0
    2.3307    0.0707   -0.1136 C   0  0  0  0  0  0  0  0  0  0  0  0
    3.5426   -0.3825    0.6451 C   0  0  0  0  0  0  0  0  0  0  0  0
    2.4283    0.7642   -1.2575 C   0  0  0  0  0  0  0  0  0  0  0  0
   -1.7646   -2.0197   -0.7419 H   0  0  0  0  0  0  0  0  0  0  0  0
   -1.2906   -1.8118    0.9252 H   0  0  0  0  0  0  0  0  0  0  0  0
    0.6871   -2.2121   -0.4835 H   0  0  0  0  0  0  0  0  0  0  0  0
    0.2685   -0.8613   -1.5188 H   0  0  0  0  0  0  0  0  0  0  0  0
    1.1715   -0.8572    1.4099 H   0  0  0  0  0  0  0  0  0  0  0  0
   -1.5692    2.0076    0.9436 H   0  0  0  0  0  0  0  0  0  0  0  0
    0.7496    1.7280    1.3909 H   0  0  0  0  0  0  0  0  0  0  0  0
   -2.9190    1.4307   -1.3842 H   0  0  0  0  0  0  0  0  0  0  0  0
   -1.4867    0.6516   -2.0812 H   0  0  0  0  0  0  0  0  0  0  0  0
   -3.0126   -0.2417   -1.9019 H   0  0  0  0  0  0  0  0  0  0  0  0
   -3.6157    0.7048    0.7583 H   0  0  0  0  0  0  0  0  0  0  0  0
    3.5444    0.0475    1.6520 H   0  0  0  0  0  0  0  0  0  0  0  0
    3.5511   -1.4740    0.7313 H   0  0  0  0  0  0  0  0  0  0  0  0
    4.4733   -0.0806    0.1532 H   0  0  0  0  0  0  0  0  0  0  0  0
    3.3960    1.0222   -1.6755 H   0  0  0  0  0  0  0  0  0  0  0  0
    1.5535    1.1001   -1.8040 H   0  0  0  0  0  0  0  0  0  0  0  0
  1  2  1  0  0  0  0
  1 22  1  0  0  0  0
  2  3  1  0  0  0  0
  2  6  1  0  0  0  0
  2  8  1  0  0  0  0
  3  4  1  0  0  0  0
  3 12  1  0  0  0  0
  3 13  1  0  0  0  0
  4  5  1  0  0  0  0
  4 14  1  0  0  0  0
  4 15  1  0  0  0  0
  5  7  1  0  0  0  0
  5  9  1  0  0  0  0
  5 16  1  0  0  0  0
  6  7  2  0  0  0  0
  6 17  1  0  0  0  0
  7 18  1  0  0  0  0
  8 19  1  0  0  0  0
  8 20  1  0  0  0  0
  8 21  1  0  0  0  0
  9 10  1  0  0  0  0
  9 11  2  0  0  0  0
 10 23  1  0  0  0  0
 10 24  1  0  0  0  0
 10 25  1  0  0  0  0
 11 26  1  0  0  0  0
 11 27  1  0  0  0  0
M  END
> <PUBCHEM_COMPOUND_CID>
111274

> <PUBCHEM_CONFORMER_RMSD>
0.4

> <PUBCHEM_CONFORMER_DIVERSEORDER>
1
4
2
5
3

> <PUBCHEM_MMFF94_PARTIAL_CHARGES>
13
1 -0.68
10 0.14
11 -0.3
17 0.15
18 0.15
2 0.42
22 0.4
26 0.15
27 0.15
5 0.28
6 -0.29
7 -0.29
9 -0.28

> <PUBCHEM_EFFECTIVE_ROTOR_COUNT>
1.8

> <PUBCHEM_PHARMACOPHORE_FEATURES>
3
1 1 acceptor
1 1 donor
6 2 3 4 5 6 7 rings

> <PUBCHEM_HEAVY_ATOM_COUNT>
11

> <PUBCHEM_ATOM_DEF_STEREO_COUNT>
2

> <PUBCHEM_ATOM_UDEF_STEREO_COUNT>
0

> <PUBCHEM_BOND_DEF_STEREO_COUNT>
0

> <PUBCHEM_BOND_UDEF_STEREO_COUNT>
0

> <PUBCHEM_ISOTOPIC_ATOM_COUNT>
0

> <PUBCHEM_COMPONENT_COUNT>
1

> <PUBCHEM_CACTVS_TAUTO_COUNT>
1

> <PUBCHEM_CONFORMER_ID>
0001B2AA00000001

> <PUBCHEM_MMFF94_ENERGY>
17.1184

> <PUBCHEM_FEATURE_SELFOVERLAP>
15.223

> <PUBCHEM_SHAPE_FINGERPRINT>
10353120 184 18059586788274625417
11062470 55 12823297892241906707
12897270 3 18272373065974251636
12932764 1 17968098654989250532
13024252 1 14779267514205082377
15310529 11 17603868930992064433
15775835 57 17968671526306823396
16945 1 18273216395561005586
19973954 147 16515689952521008420
20201158 50 17132114645627539094
20645464 45 17275100643667091394
20645476 183 18261404398300584846
20653085 51 17313105228615974444
21028194 46 18186803586474946054
21293036 1 18272639173679205709
23235685 24 18343866606320631059
23402539 116 17632283550281253996
23552423 10 18049722111678741712
23559900 14 18131630102553654962
2748010 2 17913760893191706203
29004967 10 14476961185989318250
3248919 1 18343867714533002214
369184 2 16877665681564614433
5084963 1 18040716974013532128
528886 8 17989205940942392467
57812782 119 17022619784206695800

> <PUBCHEM_SHAPE_MULTIPOLES>
220.51
4.71
1.2
1.17
1.55
0.15
0.38
-0.06
0.12
-0.2
-0.05
-0.05
-0.23
-0.17

> <PUBCHEM_SHAPE_SELFOVERLAP>
439.214

> <PUBCHEM_SHAPE_VOLUME>
131.3

> <PUBCHEM_COORDINATE_TYPE>
2
5
10

$$$$
