111213
  -OEChem-11232108503D

 32 33  0     1  0  0  0  0  0999 V2000
    0.8336   -1.1471   -0.0800 O   0  0  0  0  0  0  0  0  0  0  0  0
   -0.6289   -2.9274    0.0947 O   0  0  0  0  0  0  0  0  0  0  0  0
   -0.6830    0.5896   -0.5049 C   0  0  2  0  0  0  0  0  0  0  0  0
    0.7036    0.2887    0.0299 C   0  0  2  0  0  0  0  0  0  0  0  0
   -1.3543    1.8508    0.0303 C   0  0  0  0  0  0  0  0  0  0  0  0
   -1.3824   -0.6418   -0.0628 C   0  0  0  0  0  0  0  0  0  0  0  0
    1.8100    0.9580   -0.7664 C   0  0  0  0  0  0  0  0  0  0  0  0
   -2.8618    1.7800   -0.2452 C   0  0  0  0  0  0  0  0  0  0  0  0
    3.2175    0.7243   -0.1872 C   0  0  0  0  0  0  0  0  0  0  0  0
   -3.5147    0.5304    0.3738 C   0  0  0  0  0  0  0  0  0  0  0  0
   -2.6553   -0.7042    0.3354 C   0  0  0  0  0  0  0  0  0  0  0  0
   -0.4005   -1.7363   -0.0001 C   0  0  0  0  0  0  0  0  0  0  0  0
    3.3347    1.1943    1.2635 C   0  0  0  0  0  0  0  0  0  0  0  0
    3.5813   -0.7594   -0.2811 C   0  0  0  0  0  0  0  0  0  0  0  0
   -0.6819    0.6042   -1.6035 H   0  0  0  0  0  0  0  0  0  0  0  0
    0.7684    0.5468    1.0934 H   0  0  0  0  0  0  0  0  0  0  0  0
   -0.9252    2.7382   -0.4481 H   0  0  0  0  0  0  0  0  0  0  0  0
   -1.1885    1.9561    1.1100 H   0  0  0  0  0  0  0  0  0  0  0  0
    1.7952    0.5990   -1.8038 H   0  0  0  0  0  0  0  0  0  0  0  0
    1.6264    2.0392   -0.8015 H   0  0  0  0  0  0  0  0  0  0  0  0
   -3.0253    1.7683   -1.3307 H   0  0  0  0  0  0  0  0  0  0  0  0
   -3.3563    2.6803    0.1369 H   0  0  0  0  0  0  0  0  0  0  0  0
    3.9268    1.2952   -0.7994 H   0  0  0  0  0  0  0  0  0  0  0  0
   -4.4642    0.3312   -0.1359 H   0  0  0  0  0  0  0  0  0  0  0  0
   -3.7540    0.7387    1.4239 H   0  0  0  0  0  0  0  0  0  0  0  0
   -3.0812   -1.6342    0.6981 H   0  0  0  0  0  0  0  0  0  0  0  0
    2.7742    0.5617    1.9586 H   0  0  0  0  0  0  0  0  0  0  0  0
    2.9805    2.2249    1.3697 H   0  0  0  0  0  0  0  0  0  0  0  0
    4.3829    1.1697    1.5819 H   0  0  0  0  0  0  0  0  0  0  0  0
    3.1170   -1.3644    0.5030 H   0  0  0  0  0  0  0  0  0  0  0  0
    4.6641   -0.8755   -0.1514 H   0  0  0  0  0  0  0  0  0  0  0  0
    3.3295   -1.1790   -1.2604 H   0  0  0  0  0  0  0  0  0  0  0  0
  1  4  1  0  0  0  0
  1 12  1  0  0  0  0
  2 12  2  0  0  0  0
  3  4  1  0  0  0  0
  3  5  1  0  0  0  0
  3  6  1  0  0  0  0
  3 15  1  0  0  0  0
  4  7  1  0  0  0  0
  4 16  1  0  0  0  0
  5  8  1  0  0  0  0
  5 17  1  0  0  0  0
  5 18  1  0  0  0  0
  6 11  2  0  0  0  0
  6 12  1  0  0  0  0
  7  9  1  0  0  0  0
  7 19  1  0  0  0  0
  7 20  1  0  0  0  0
  8 10  1  0  0  0  0
  8 21  1  0  0  0  0
  8 22  1  0  0  0  0
  9 13  1  0  0  0  0
  9 14  1  0  0  0  0
  9 23  1  0  0  0  0
 10 11  1  0  0  0  0
 10 24  1  0  0  0  0
 10 25  1  0  0  0  0
 11 26  1  0  0  0  0
 13 27  1  0  0  0  0
 13 28  1  0  0  0  0
 13 29  1  0  0  0  0
 14 30  1  0  0  0  0
 14 31  1  0  0  0  0
 14 32  1  0  0  0  0
M  END
> <PUBCHEM_COMPOUND_CID>
111213

> <PUBCHEM_CONFORMER_RMSD>
0.6

> <PUBCHEM_CONFORMER_DIVERSEORDER>
1
2
4
3

> <PUBCHEM_MMFF94_PARTIAL_CHARGES>
9
1 -0.43
10 0.14
11 -0.29
12 0.71
2 -0.57
26 0.15
3 0.14
4 0.28
6 -0.12

> <PUBCHEM_EFFECTIVE_ROTOR_COUNT>
3

> <PUBCHEM_PHARMACOPHORE_FEATURES>
4
1 2 acceptor
3 9 13 14 hydrophobe
5 1 3 4 6 12 rings
6 3 5 6 8 10 11 rings

> <PUBCHEM_HEAVY_ATOM_COUNT>
14

> <PUBCHEM_ATOM_DEF_STEREO_COUNT>
0

> <PUBCHEM_ATOM_UDEF_STEREO_COUNT>
2

> <PUBCHEM_BOND_DEF_STEREO_COUNT>
0

> <PUBCHEM_BOND_UDEF_STEREO_COUNT>
0

> <PUBCHEM_ISOTOPIC_ATOM_COUNT>
0

> <PUBCHEM_COMPONENT_COUNT>
1

> <PUBCHEM_CACTVS_TAUTO_COUNT>
1

> <PUBCHEM_CONFORMER_ID>
0001B26D00000001

> <PUBCHEM_MMFF94_ENERGY>
22.6172

> <PUBCHEM_FEATURE_SELFOVERLAP>
20.382

> <PUBCHEM_SHAPE_FINGERPRINT>
10608611 8 18342736347206976064
108231 29 18272091638432436369
10922523 26 18341619204643166918
10967382 1 18337393734028418887
11132069 177 18409165523926326929
11543360 7 15841259428590959141
12251169 10 18334852870431945376
12382932 28 18267866271107360984
12500047 106 18413103992073160468
12553582 1 17401215963214037118
12716758 59 18413108385460655530
12932764 1 17846220007417072580
13380535 76 18262520291065145415
14144814 61 18334576858437220976
14178342 30 18191855933100290626
14325111 11 18410014321011808012
14614273 12 18188487974265363333
15219456 202 18202282511450416372
15309172 13 18408893910115172921
15669948 3 18191873533527765596
15775835 57 18341617005314098968
16945 1 18265055901848206629
17804303 29 18411704249436189078
17846911 113 18411978074633287257
18186145 218 18131358483593419800
193761 8 17545607111670312277
20510252 161 18342741840174755361
20645476 183 17750539410098260702
20645477 56 18411136974282252824
20871998 184 18127419062201165191
21028194 46 18342179942530278868
21524375 3 18342177730685502959
2334 1 18409168774989450437
23402539 116 18270390728472687007
23419403 2 16823850304086813948
23463225 33 18187929434910701004
23557571 272 17984993836703433892
23559900 14 18343868827694663324
2748010 2 18336555902004909815
305870 269 18262798449905181931
3071541 236 18261384615438437747
43471831 8 18334011657836898115
53812653 166 18340769243336783248
54173680 148 18192156116458891027
5706482 22 18410003338901615083
58807428 26 18335983077832199403
6333449 129 18412261757138610069
69090 78 18201716275393385223
7364860 26 17981045210990704223
81228 2 18121210145761243515
9709674 26 18343305911563046798

> <PUBCHEM_SHAPE_MULTIPOLES>
276.37
5.88
2.21
0.82
2.4
1.09
-0.11
-1.92
-0.79
-0.77
-0.06
0.42
-0.21
0.41

> <PUBCHEM_SHAPE_SELFOVERLAP>
570.602

> <PUBCHEM_SHAPE_VOLUME>
160.2

> <PUBCHEM_COORDINATE_TYPE>
2
5
10

$$$$
