111255
  -OEChem-11232109463D

 36 37  0     1  0  0  0  0  0999 V2000
    1.5284    0.0707   -0.1225 O   0  0  0  0  0  0  0  0  0  0  0  0
    4.2277    0.7194   -0.4773 O   0  0  0  0  0  0  0  0  0  0  0  0
   -0.8612    0.4220   -0.7389 C   0  0  1  0  0  0  0  0  0  0  0  0
   -1.4902    0.5222    0.6874 C   0  0  0  0  0  0  0  0  0  0  0  0
   -1.6250   -1.0187    0.7847 C   0  0  2  0  0  0  0  0  0  0  0  0
    0.3348   -0.5625   -0.5514 C   0  0  2  0  0  0  0  0  0  0  0  0
   -1.9345   -0.3883   -1.5225 C   0  0  0  0  0  0  0  0  0  0  0  0
   -0.1831   -1.5233    0.5368 C   0  0  0  0  0  0  0  0  0  0  0  0
   -2.4468   -1.3875   -0.4706 C   0  0  0  0  0  0  0  0  0  0  0  0
   -0.5079    1.7344   -1.4142 C   0  0  0  0  0  0  0  0  0  0  0  0
   -0.5762    1.1434    1.7655 C   0  0  0  0  0  0  0  0  0  0  0  0
   -2.8293    1.2772    0.7920 C   0  0  0  0  0  0  0  0  0  0  0  0
    2.5556   -0.8746    0.1507 C   0  0  0  0  0  0  0  0  0  0  0  0
    3.8077   -0.1344    0.5801 C   0  0  0  0  0  0  0  0  0  0  0  0
   -2.0606   -1.3983    1.7120 H   0  0  0  0  0  0  0  0  0  0  0  0
    0.5481   -1.0969   -1.4859 H   0  0  0  0  0  0  0  0  0  0  0  0
   -1.5193   -0.9012   -2.3971 H   0  0  0  0  0  0  0  0  0  0  0  0
   -2.7509    0.2481   -1.8817 H   0  0  0  0  0  0  0  0  0  0  0  0
    0.3623   -1.4836    1.4833 H   0  0  0  0  0  0  0  0  0  0  0  0
   -0.1735   -2.5626    0.1909 H   0  0  0  0  0  0  0  0  0  0  0  0
   -3.5205   -1.2555   -0.2998 H   0  0  0  0  0  0  0  0  0  0  0  0
   -2.2897   -2.4246   -0.7851 H   0  0  0  0  0  0  0  0  0  0  0  0
   -1.3931    2.3648   -1.5475 H   0  0  0  0  0  0  0  0  0  0  0  0
    0.2218    2.3052   -0.8315 H   0  0  0  0  0  0  0  0  0  0  0  0
   -0.0759    1.5554   -2.4047 H   0  0  0  0  0  0  0  0  0  0  0  0
   -1.0619    1.0893    2.7474 H   0  0  0  0  0  0  0  0  0  0  0  0
    0.3947    0.6638    1.8883 H   0  0  0  0  0  0  0  0  0  0  0  0
   -0.3875    2.2011    1.5503 H   0  0  0  0  0  0  0  0  0  0  0  0
   -2.6771    2.3547    0.6614 H   0  0  0  0  0  0  0  0  0  0  0  0
   -3.5746    0.9756    0.0529 H   0  0  0  0  0  0  0  0  0  0  0  0
   -3.2814    1.1211    1.7784 H   0  0  0  0  0  0  0  0  0  0  0  0
    2.2915   -1.5712    0.9490 H   0  0  0  0  0  0  0  0  0  0  0  0
    2.7639   -1.4418   -0.7643 H   0  0  0  0  0  0  0  0  0  0  0  0
    4.6193   -0.8321    0.8041 H   0  0  0  0  0  0  0  0  0  0  0  0
    3.6184    0.4885    1.4599 H   0  0  0  0  0  0  0  0  0  0  0  0
    3.4909    1.3228   -0.6749 H   0  0  0  0  0  0  0  0  0  0  0  0
  1  6  1  0  0  0  0
  1 13  1  0  0  0  0
  2 14  1  0  0  0  0
  2 36  1  0  0  0  0
  3  4  1  0  0  0  0
  3  6  1  0  0  0  0
  3  7  1  0  0  0  0
  3 10  1  0  0  0  0
  4  5  1  0  0  0  0
  4 11  1  0  0  0  0
  4 12  1  0  0  0  0
  5  8  1  0  0  0  0
  5  9  1  0  0  0  0
  5 15  1  0  0  0  0
  6  8  1  0  0  0  0
  6 16  1  0  0  0  0
  7  9  1  0  0  0  0
  7 17  1  0  0  0  0
  7 18  1  0  0  0  0
  8 19  1  0  0  0  0
  8 20  1  0  0  0  0
  9 21  1  0  0  0  0
  9 22  1  0  0  0  0
 10 23  1  0  0  0  0
 10 24  1  0  0  0  0
 10 25  1  0  0  0  0
 11 26  1  0  0  0  0
 11 27  1  0  0  0  0
 11 28  1  0  0  0  0
 12 29  1  0  0  0  0
 12 30  1  0  0  0  0
 12 31  1  0  0  0  0
 13 14  1  0  0  0  0
 13 32  1  0  0  0  0
 13 33  1  0  0  0  0
 14 34  1  0  0  0  0
 14 35  1  0  0  0  0
M  END
> <PUBCHEM_COMPOUND_CID>
111255

> <PUBCHEM_CONFORMER_RMSD>
0.6

> <PUBCHEM_CONFORMER_DIVERSEORDER>
1
2

> <PUBCHEM_MMFF94_PARTIAL_CHARGES>
6
1 -0.56
13 0.28
14 0.28
2 -0.68
36 0.4
6 0.28

> <PUBCHEM_EFFECTIVE_ROTOR_COUNT>
4

> <PUBCHEM_PHARMACOPHORE_FEATURES>
5
1 1 acceptor
1 2 acceptor
1 2 donor
3 4 11 12 hydrophobe
7 3 4 5 6 7 8 9 rings

> <PUBCHEM_HEAVY_ATOM_COUNT>
14

> <PUBCHEM_ATOM_DEF_STEREO_COUNT>
3

> <PUBCHEM_ATOM_UDEF_STEREO_COUNT>
0

> <PUBCHEM_BOND_DEF_STEREO_COUNT>
0

> <PUBCHEM_BOND_UDEF_STEREO_COUNT>
0

> <PUBCHEM_ISOTOPIC_ATOM_COUNT>
0

> <PUBCHEM_COMPONENT_COUNT>
1

> <PUBCHEM_CACTVS_TAUTO_COUNT>
1

> <PUBCHEM_CONFORMER_ID>
0001B29700000001

> <PUBCHEM_MMFF94_ENERGY>
64.8339

> <PUBCHEM_FEATURE_SELFOVERLAP>
25.375

> <PUBCHEM_SHAPE_FINGERPRINT>
12138202 97 17346033360169191741
12186901 62 16773807999528052004
12423570 1 13298100647447479615
12916754 54 18260263058276365658
12932764 1 17968097465573700218
13024252 1 14418132915767211203
14817 1 8669122841541577041
15309172 13 18113340786702067914
15775835 57 18335704901616932658
16945 1 18271259230989129121
200 152 18201423805548466110
20525323 117 18343018891387735902
21452121 71 17341803775055162287
21524375 3 16840801045265992217
22344851 262 18334304136693426473
2306618 200 18337380553090415584
23236772 104 18411982446788519499
23419403 2 17839709854850987637
369184 2 18040996211243820178
4175511 318 15841550756201339880
528886 8 18041544876505202295

> <PUBCHEM_SHAPE_MULTIPOLES>
276.37
5.02
1.59
1.42
7.11
0.07
-0.06
0.34
0.16
-0.77
0.03
-0.63
0.44
-0.43

> <PUBCHEM_SHAPE_SELFOVERLAP>
570.918

> <PUBCHEM_SHAPE_VOLUME>
165.3

> <PUBCHEM_COORDINATE_TYPE>
2
5
10

$$$$
