111351
  -OEChem-11232109213D

 36 37  0     1  0  0  0  0  0999 V2000
    2.9077   -0.3572    0.2991 O   0  0  0  0  0  0  0  0  0  0  0  0
    1.5882   -1.9067   -0.7939 O   0  0  0  0  0  0  0  0  0  0  0  0
    0.4845    1.2914    0.1000 C   0  0  2  0  0  0  0  0  0  0  0  0
   -1.2299    0.7992   -1.2622 C   0  0  1  0  0  0  0  0  0  0  0  0
   -0.5523    2.0675   -0.7348 C   0  0  0  0  0  0  0  0  0  0  0  0
    1.1567    0.4503   -1.0245 C   0  0  2  0  0  0  0  0  0  0  0  0
   -0.0425    0.0795   -1.9407 C   0  0  0  0  0  0  0  0  0  0  0  0
   -0.4836    0.4077    0.8872 C   0  0  0  0  0  0  0  0  0  0  0  0
   -1.5027    0.1130    0.0590 C   0  0  0  0  0  0  0  0  0  0  0  0
    1.4207    2.1824    0.8912 C   0  0  0  0  0  0  0  0  0  0  0  0
    1.8859   -0.7539   -0.5119 C   0  0  0  0  0  0  0  0  0  0  0  0
   -0.2307   -0.0250    2.2862 C   0  0  0  0  0  0  0  0  0  0  0  0
   -2.6593   -0.6911    0.2828 C   0  0  0  0  0  0  0  0  0  0  0  0
   -3.1023   -1.5791   -0.8509 C   0  0  0  0  0  0  0  0  0  0  0  0
   -3.3324   -0.6642    1.4518 C   0  0  0  0  0  0  0  0  0  0  0  0
    3.6919   -1.4138    0.8617 C   0  0  0  0  0  0  0  0  0  0  0  0
   -2.0961    0.9869   -1.8986 H   0  0  0  0  0  0  0  0  0  0  0  0
   -0.1042    2.6781   -1.5278 H   0  0  0  0  0  0  0  0  0  0  0  0
   -1.2178    2.7008   -0.1335 H   0  0  0  0  0  0  0  0  0  0  0  0
    1.8677    1.0507   -1.6076 H   0  0  0  0  0  0  0  0  0  0  0  0
   -0.2235   -0.9930   -2.0588 H   0  0  0  0  0  0  0  0  0  0  0  0
    0.1218    0.5000   -2.9404 H   0  0  0  0  0  0  0  0  0  0  0  0
    0.8554    2.8786    1.5215 H   0  0  0  0  0  0  0  0  0  0  0  0
    2.0792    1.6148    1.5544 H   0  0  0  0  0  0  0  0  0  0  0  0
    2.0494    2.7826    0.2246 H   0  0  0  0  0  0  0  0  0  0  0  0
   -0.3839    0.8096    2.9768 H   0  0  0  0  0  0  0  0  0  0  0  0
    0.8010   -0.3745    2.3945 H   0  0  0  0  0  0  0  0  0  0  0  0
   -0.8692   -0.8549    2.5983 H   0  0  0  0  0  0  0  0  0  0  0  0
   -3.4333   -0.9871   -1.7101 H   0  0  0  0  0  0  0  0  0  0  0  0
   -3.9390   -2.2233   -0.5584 H   0  0  0  0  0  0  0  0  0  0  0  0
   -2.2852   -2.2354   -1.1695 H   0  0  0  0  0  0  0  0  0  0  0  0
   -4.2096   -1.2858    1.6029 H   0  0  0  0  0  0  0  0  0  0  0  0
   -3.0549   -0.0119    2.2728 H   0  0  0  0  0  0  0  0  0  0  0  0
    4.1713   -1.9939    0.0675 H   0  0  0  0  0  0  0  0  0  0  0  0
    3.0660   -2.0573    1.4874 H   0  0  0  0  0  0  0  0  0  0  0  0
    4.4683   -0.9648    1.4867 H   0  0  0  0  0  0  0  0  0  0  0  0
  1 11  1  0  0  0  0
  1 16  1  0  0  0  0
  2 11  2  0  0  0  0
  3  5  1  0  0  0  0
  3  6  1  0  0  0  0
  3  8  1  0  0  0  0
  3 10  1  0  0  0  0
  4  5  1  0  0  0  0
  4  7  1  0  0  0  0
  4  9  1  0  0  0  0
  4 17  1  0  0  0  0
  5 18  1  0  0  0  0
  5 19  1  0  0  0  0
  6  7  1  0  0  0  0
  6 11  1  0  0  0  0
  6 20  1  0  0  0  0
  7 21  1  0  0  0  0
  7 22  1  0  0  0  0
  8  9  2  0  0  0  0
  8 12  1  0  0  0  0
  9 13  1  0  0  0  0
 10 23  1  0  0  0  0
 10 24  1  0  0  0  0
 10 25  1  0  0  0  0
 12 26  1  0  0  0  0
 12 27  1  0  0  0  0
 12 28  1  0  0  0  0
 13 14  1  0  0  0  0
 13 15  2  0  0  0  0
 14 29  1  0  0  0  0
 14 30  1  0  0  0  0
 14 31  1  0  0  0  0
 15 32  1  0  0  0  0
 15 33  1  0  0  0  0
 16 34  1  0  0  0  0
 16 35  1  0  0  0  0
 16 36  1  0  0  0  0
M  END
> <PUBCHEM_COMPOUND_CID>
111351

> <PUBCHEM_CONFORMER_RMSD>
0.6

> <PUBCHEM_CONFORMER_DIVERSEORDER>
1
11
6
12
2
10
4
9
5
7
3
8

> <PUBCHEM_MMFF94_PARTIAL_CHARGES>
15
1 -0.43
11 0.66
12 0.14
13 -0.14
14 0.14
15 -0.3
16 0.28
2 -0.57
3 0.14
32 0.15
33 0.15
4 0.14
6 0.06
8 -0.28
9 -0.14

> <PUBCHEM_EFFECTIVE_ROTOR_COUNT>
3.6

> <PUBCHEM_PHARMACOPHORE_FEATURES>
2
1 2 acceptor
7 3 4 5 6 7 8 9 rings

> <PUBCHEM_HEAVY_ATOM_COUNT>
16

> <PUBCHEM_ATOM_DEF_STEREO_COUNT>
0

> <PUBCHEM_ATOM_UDEF_STEREO_COUNT>
3

> <PUBCHEM_BOND_DEF_STEREO_COUNT>
0

> <PUBCHEM_BOND_UDEF_STEREO_COUNT>
0

> <PUBCHEM_ISOTOPIC_ATOM_COUNT>
0

> <PUBCHEM_COMPONENT_COUNT>
1

> <PUBCHEM_CACTVS_TAUTO_COUNT>
1

> <PUBCHEM_CONFORMER_ID>
0001B2F700000001

> <PUBCHEM_MMFF94_ENERGY>
57.6962

> <PUBCHEM_FEATURE_SELFOVERLAP>
10.148

> <PUBCHEM_SHAPE_FINGERPRINT>
10353120 184 16950288420769607141
12202030 40 17677905719444191819
12382932 28 16774089457409432291
12423570 1 12217969320396574820
13024252 1 17170125737446795732
13299463 15 16443066088657010979
144361 1 13768472137989317940
14713566 1 17681824120849943780
14787075 74 16118229976935142221
16945 1 17988934357301699269
20344682 10 16415760829587955986
20653085 51 11963685412243125767
20711985 344 17459731671485690573
21061003 4 18130781227230289360
21452121 71 18338239387461901774
21501502 16 18335425659702027724
22802520 49 14781833894640325921
23419403 2 17970041491972630348
23559900 14 16732980934487945592
347723 3 13840255953811388118
394222 165 17343798258866730417
528862 383 17986666180714501680
568465 68 17917984005685292314
81228 2 18044946670655033861

> <PUBCHEM_SHAPE_MULTIPOLES>
317.53
4.54
1.93
1.78
0.02
0.46
0.29
-3.35
0.6
0.67
-0.02
-0.33
-0.08
0.26

> <PUBCHEM_SHAPE_SELFOVERLAP>
674.832

> <PUBCHEM_SHAPE_VOLUME>
184

> <PUBCHEM_COORDINATE_TYPE>
2
5
10

$$$$
