111384
  -OEChem-11232109483D

 33 33  0     1  0  0  0  0  0999 V2000
   -2.0971    2.1622   -0.4543 O   0  0  0  0  0  0  0  0  0  0  0  0
    1.1427   -0.3686    0.0891 C   0  0  1  0  0  0  0  0  0  0  0  0
    1.1088    0.9866    0.8238 C   0  0  1  0  0  0  0  0  0  0  0  0
   -0.2544   -0.8937   -0.2174 C   0  0  0  0  0  0  0  0  0  0  0  0
    0.2119    1.9755    0.0867 C   0  0  0  0  0  0  0  0  0  0  0  0
    1.9750   -0.2794   -1.1985 C   0  0  0  0  0  0  0  0  0  0  0  0
   -1.3286   -0.0845   -0.3467 C   0  0  0  0  0  0  0  0  0  0  0  0
    0.6704    0.8284    2.2874 C   0  0  0  0  0  0  0  0  0  0  0  0
   -1.1501    1.4042   -0.2371 C   0  0  0  0  0  0  0  0  0  0  0  0
   -0.3212   -2.3970   -0.3435 C   0  0  0  0  0  0  0  0  0  0  0  0
    3.3780    0.2098   -0.9087 C   0  0  0  0  0  0  0  0  0  0  0  0
   -2.7443   -0.5302   -0.5876 C   0  0  0  0  0  0  0  0  0  0  0  0
   -0.5911   -3.0131    1.0068 C   0  0  0  0  0  0  0  0  0  0  0  0
    1.6416   -1.0832    0.7587 H   0  0  0  0  0  0  0  0  0  0  0  0
    2.1093    1.4245    0.8885 H   0  0  0  0  0  0  0  0  0  0  0  0
    0.6720    2.2878   -0.8574 H   0  0  0  0  0  0  0  0  0  0  0  0
    0.0697    2.8754    0.6968 H   0  0  0  0  0  0  0  0  0  0  0  0
    1.5033    0.3714   -1.9440 H   0  0  0  0  0  0  0  0  0  0  0  0
    2.0483   -1.2711   -1.6609 H   0  0  0  0  0  0  0  0  0  0  0  0
    1.3491    0.1542    2.8210 H   0  0  0  0  0  0  0  0  0  0  0  0
    0.6930    1.7949    2.8027 H   0  0  0  0  0  0  0  0  0  0  0  0
   -0.3429    0.4259    2.3802 H   0  0  0  0  0  0  0  0  0  0  0  0
   -1.0935   -2.7020   -1.0578 H   0  0  0  0  0  0  0  0  0  0  0  0
    0.6150   -2.7961   -0.7492 H   0  0  0  0  0  0  0  0  0  0  0  0
    3.4144    1.2905   -0.7442 H   0  0  0  0  0  0  0  0  0  0  0  0
    3.8204   -0.3000   -0.0469 H   0  0  0  0  0  0  0  0  0  0  0  0
    4.0207    0.0103   -1.7735 H   0  0  0  0  0  0  0  0  0  0  0  0
   -3.4152   -0.0819    0.1535 H   0  0  0  0  0  0  0  0  0  0  0  0
   -2.8790   -1.6116   -0.5138 H   0  0  0  0  0  0  0  0  0  0  0  0
   -3.0732   -0.2199   -1.5849 H   0  0  0  0  0  0  0  0  0  0  0  0
   -0.6447   -4.1033    0.9181 H   0  0  0  0  0  0  0  0  0  0  0  0
   -1.5418   -2.6693    1.4284 H   0  0  0  0  0  0  0  0  0  0  0  0
    0.2008   -2.7801    1.7267 H   0  0  0  0  0  0  0  0  0  0  0  0
  1  9  2  0  0  0  0
  2  3  1  0  0  0  0
  2  4  1  0  0  0  0
  2  6  1  0  0  0  0
  2 14  1  0  0  0  0
  3  5  1  0  0  0  0
  3  8  1  0  0  0  0
  3 15  1  0  0  0  0
  4  7  2  0  0  0  0
  4 10  1  0  0  0  0
  5  9  1  0  0  0  0
  5 16  1  0  0  0  0
  5 17  1  0  0  0  0
  6 11  1  0  0  0  0
  6 18  1  0  0  0  0
  6 19  1  0  0  0  0
  7  9  1  0  0  0  0
  7 12  1  0  0  0  0
  8 20  1  0  0  0  0
  8 21  1  0  0  0  0
  8 22  1  0  0  0  0
 10 13  1  0  0  0  0
 10 23  1  0  0  0  0
 10 24  1  0  0  0  0
 11 25  1  0  0  0  0
 11 26  1  0  0  0  0
 11 27  1  0  0  0  0
 12 28  1  0  0  0  0
 12 29  1  0  0  0  0
 12 30  1  0  0  0  0
 13 31  1  0  0  0  0
 13 32  1  0  0  0  0
 13 33  1  0  0  0  0
M  END
> <PUBCHEM_COMPOUND_CID>
111384

> <PUBCHEM_CONFORMER_RMSD>
0.6

> <PUBCHEM_CONFORMER_DIVERSEORDER>
1
10
3
4
9
2
7
6
5
8

> <PUBCHEM_MMFF94_PARTIAL_CHARGES>
8
1 -0.57
10 0.14
12 0.14
2 0.14
4 -0.28
5 0.06
7 -0.12
9 0.49

> <PUBCHEM_EFFECTIVE_ROTOR_COUNT>
2.6

> <PUBCHEM_PHARMACOPHORE_FEATURES>
4
1 1 acceptor
1 11 hydrophobe
1 13 hydrophobe
6 2 3 4 5 7 9 rings

> <PUBCHEM_HEAVY_ATOM_COUNT>
13

> <PUBCHEM_ATOM_DEF_STEREO_COUNT>
0

> <PUBCHEM_ATOM_UDEF_STEREO_COUNT>
2

> <PUBCHEM_BOND_DEF_STEREO_COUNT>
0

> <PUBCHEM_BOND_UDEF_STEREO_COUNT>
0

> <PUBCHEM_ISOTOPIC_ATOM_COUNT>
0

> <PUBCHEM_COMPONENT_COUNT>
1

> <PUBCHEM_CACTVS_TAUTO_COUNT>
8

> <PUBCHEM_CONFORMER_ID>
0001B31800000001

> <PUBCHEM_MMFF94_ENERGY>
17.6039

> <PUBCHEM_FEATURE_SELFOVERLAP>
20.297

> <PUBCHEM_SHAPE_FINGERPRINT>
11680611 10 17392733162280480963
12423570 1 11617279725578717296
12524768 44 17909818070375088023
12716301 132 18337377310062858481
12716758 59 18410859858702265182
13024252 1 15720541912594638972
14648413 74 17763181740744117485
14761567 1 17911789181212404213
14817 1 12283783612713068216
16945 1 18337115665082002358
17990270 104 17256802824487139799
18534176 82 18265628730648642622
20511035 2 17475487514155524645
20588541 1 18055909050591609512
20645476 183 17822286903102184070
20653085 51 17896909602334039548
21061003 4 17129607849600725302
21922407 69 15936679381276571765
22344851 341 18051137990476475111
22802520 49 18053109698492989412
23211744 25 18342172232932009917
23552423 10 17831298302940351167
23559900 14 18129940054366204822
241688 4 18050291667181146594
2748010 2 18268974505793070821
430814 3 17458063737825734566
5084963 1 18202559613949933685
528886 8 18336830771084893076

> <PUBCHEM_SHAPE_MULTIPOLES>
261.66
3.2
2.71
1.4
1.21
0.57
-0.84
0.39
1.28
-1.48
-0.31
0.54
-0.04
0.82

> <PUBCHEM_SHAPE_SELFOVERLAP>
519.294

> <PUBCHEM_SHAPE_VOLUME>
155.6

> <PUBCHEM_COORDINATE_TYPE>
2
5
10

$$$$
