11137735
  -OEChem-11232108453D

 33 32  0     0  0  0  0  0  0999 V2000
   -1.4211   -0.4593   -1.8605 O   0  0  0  0  0  0  0  0  0  0  0  0
    1.1587    1.2986   -0.3839 C   0  0  0  0  0  0  0  0  0  0  0  0
    1.2665   -0.2093   -0.1123 C   0  0  0  0  0  0  0  0  0  0  0  0
    2.6395   -0.7094    0.3162 C   0  0  0  0  0  0  0  0  0  0  0  0
    0.2248   -1.0649   -0.2577 C   0  0  0  0  0  0  0  0  0  0  0  0
    1.4070    2.1535    0.8628 C   0  0  0  0  0  0  0  0  0  0  0  0
    2.0818    1.7266   -1.5290 C   0  0  0  0  0  0  0  0  0  0  0  0
    2.8344   -0.7118    1.8278 C   0  0  0  0  0  0  0  0  0  0  0  0
    0.2488   -2.5591   -0.0935 C   0  0  0  0  0  0  0  0  0  0  0  0
   -1.1044   -0.5323   -0.6796 C   0  0  0  0  0  0  0  0  0  0  0  0
   -1.9868   -0.1247    0.4447 C   0  0  0  0  0  0  0  0  0  0  0  0
   -3.2033    0.3775    0.1960 C   0  0  0  0  0  0  0  0  0  0  0  0
   -4.1460    0.8146    1.2689 C   0  0  0  0  0  0  0  0  0  0  0  0
    0.1449    1.5459   -0.7161 H   0  0  0  0  0  0  0  0  0  0  0  0
    2.8126   -1.7218   -0.0671 H   0  0  0  0  0  0  0  0  0  0  0  0
    3.4348   -0.1127   -0.1402 H   0  0  0  0  0  0  0  0  0  0  0  0
    1.1127    3.1918    0.6715 H   0  0  0  0  0  0  0  0  0  0  0  0
    0.8199    1.7949    1.7147 H   0  0  0  0  0  0  0  0  0  0  0  0
    2.4647    2.1693    1.1432 H   0  0  0  0  0  0  0  0  0  0  0  0
    1.9571    1.0773   -2.4025 H   0  0  0  0  0  0  0  0  0  0  0  0
    3.1379    1.7206   -1.2426 H   0  0  0  0  0  0  0  0  0  0  0  0
    1.8427    2.7495   -1.8419 H   0  0  0  0  0  0  0  0  0  0  0  0
    2.0544   -1.2955    2.3279 H   0  0  0  0  0  0  0  0  0  0  0  0
    3.7997   -1.1661    2.0753 H   0  0  0  0  0  0  0  0  0  0  0  0
    2.8305    0.2930    2.2542 H   0  0  0  0  0  0  0  0  0  0  0  0
    1.0816   -2.9081    0.5218 H   0  0  0  0  0  0  0  0  0  0  0  0
   -0.6657   -2.9074    0.3993 H   0  0  0  0  0  0  0  0  0  0  0  0
    0.3132   -3.0439   -1.0729 H   0  0  0  0  0  0  0  0  0  0  0  0
   -1.6199   -0.2406    1.4590 H   0  0  0  0  0  0  0  0  0  0  0  0
   -3.5576    0.4900   -0.8250 H   0  0  0  0  0  0  0  0  0  0  0  0
   -5.0753    0.2404    1.2048 H   0  0  0  0  0  0  0  0  0  0  0  0
   -3.7278    0.6761    2.2710 H   0  0  0  0  0  0  0  0  0  0  0  0
   -4.3870    1.8746    1.1435 H   0  0  0  0  0  0  0  0  0  0  0  0
  1 10  2  0  0  0  0
  2  3  1  0  0  0  0
  2  6  1  0  0  0  0
  2  7  1  0  0  0  0
  2 14  1  0  0  0  0
  3  4  1  0  0  0  0
  3  5  2  0  0  0  0
  4  8  1  0  0  0  0
  4 15  1  0  0  0  0
  4 16  1  0  0  0  0
  5  9  1  0  0  0  0
  5 10  1  0  0  0  0
  6 17  1  0  0  0  0
  6 18  1  0  0  0  0
  6 19  1  0  0  0  0
  7 20  1  0  0  0  0
  7 21  1  0  0  0  0
  7 22  1  0  0  0  0
  8 23  1  0  0  0  0
  8 24  1  0  0  0  0
  8 25  1  0  0  0  0
  9 26  1  0  0  0  0
  9 27  1  0  0  0  0
  9 28  1  0  0  0  0
 10 11  1  0  0  0  0
 11 12  2  0  0  0  0
 11 29  1  0  0  0  0
 12 13  1  0  0  0  0
 12 30  1  0  0  0  0
 13 31  1  0  0  0  0
 13 32  1  0  0  0  0
 13 33  1  0  0  0  0
M  END
> <PUBCHEM_COMPOUND_CID>
11137735

> <PUBCHEM_CONFORMER_RMSD>
0.6

> <PUBCHEM_CONFORMER_DIVERSEORDER>
1
23
7
10
3
19
17
22
21
9
18
5
15
14
11
6
13
8
12
4
2
16
20

> <PUBCHEM_MMFF94_PARTIAL_CHARGES>
12
1 -0.57
10 0.54
11 -0.14
12 -0.29
13 0.14
2 0.14
29 0.15
3 -0.28
30 0.15
4 0.14
5 -0.12
9 0.14

> <PUBCHEM_EFFECTIVE_ROTOR_COUNT>
4

> <PUBCHEM_PHARMACOPHORE_FEATURES>
5
1 1 acceptor
1 13 hydrophobe
1 8 hydrophobe
1 9 hydrophobe
3 2 6 7 hydrophobe

> <PUBCHEM_HEAVY_ATOM_COUNT>
13

> <PUBCHEM_ATOM_DEF_STEREO_COUNT>
0

> <PUBCHEM_ATOM_UDEF_STEREO_COUNT>
0

> <PUBCHEM_BOND_DEF_STEREO_COUNT>
2

> <PUBCHEM_BOND_UDEF_STEREO_COUNT>
0

> <PUBCHEM_ISOTOPIC_ATOM_COUNT>
0

> <PUBCHEM_COMPONENT_COUNT>
1

> <PUBCHEM_CACTVS_TAUTO_COUNT>
13

> <PUBCHEM_CONFORMER_ID>
00A9F2C700000001

> <PUBCHEM_MMFF94_ENERGY>
25.3062

> <PUBCHEM_FEATURE_SELFOVERLAP>
25.374

> <PUBCHEM_SHAPE_FINGERPRINT>
11086676 242 18263068955936404104
12251169 10 18040720268396029083
12932764 1 17458061581868540839
15775835 57 18272379710431414577
16945 1 18268408201475232102
17357990 137 18131638897655160061
18186145 218 14764081034085663555
20233049 118 18270696319385140420
20559304 39 18341905038980216265
20653085 51 17416986086654859653
20671657 1 18189620625575958420
21061003 4 18116137888211171786
21501502 16 18116437122835563867
21524375 3 18270687570673298199
230 275 17561371677192085961
23380061 451 17168148884074817714
23402539 116 15051438358996768345
23419403 2 16267434301935784404
23557571 272 15840981295246237943
276578 36 18262251030595902388
31174 14 17458065984193967693
430814 3 17971488535042098220
5084963 1 17970327399112867198
528862 383 18113904896127652620
81228 2 16823900336219087647
88987 49 16988277698133320141

> <PUBCHEM_SHAPE_MULTIPOLES>
261.66
5.21
2.13
1.51
5.17
0.09
-0.01
-1.32
2.4
-1.27
-0.11
-0.36
-0.21
-0.98

> <PUBCHEM_SHAPE_SELFOVERLAP>
496.393

> <PUBCHEM_SHAPE_VOLUME>
162.7

> <PUBCHEM_COORDINATE_TYPE>
2
5
10

$$$$
