111378
  -OEChem-11232109253D

 41 42  0     1  0  0  0  0  0999 V2000
   -2.9796   -2.3389    0.4932 O   0  0  0  0  0  0  0  0  0  0  0  0
   -1.4822   -1.8579   -1.1876 O   0  0  0  0  0  0  0  0  0  0  0  0
   -0.4854    0.6792   -0.7918 N   0  0  0  0  0  0  0  0  0  0  0  0
    1.8326    0.2071   -0.2408 C   0  0  1  0  0  0  0  0  0  0  0  0
    2.7693    1.2877    0.3389 C   0  0  1  0  0  0  0  0  0  0  0  0
    2.1971   -1.1808    0.2870 C   0  0  0  0  0  0  0  0  0  0  0  0
    3.6380   -1.5464   -0.0699 C   0  0  0  0  0  0  0  0  0  0  0  0
    4.2107    0.8379    0.3887 C   0  0  0  0  0  0  0  0  0  0  0  0
    4.6146   -0.4286    0.1876 C   0  0  0  0  0  0  0  0  0  0  0  0
    2.6577    2.5839   -0.4726 C   0  0  0  0  0  0  0  0  0  0  0  0
    0.4061    0.4928    0.1256 C   0  0  0  0  0  0  0  0  0  0  0  0
    6.0651   -0.8113    0.2104 C   0  0  0  0  0  0  0  0  0  0  0  0
   -1.7885    0.9385   -0.3343 C   0  0  0  0  0  0  0  0  0  0  0  0
   -2.6854   -0.1032   -0.1112 C   0  0  0  0  0  0  0  0  0  0  0  0
   -2.1724    2.2577   -0.1063 C   0  0  0  0  0  0  0  0  0  0  0  0
   -3.9744    0.1760    0.3430 C   0  0  0  0  0  0  0  0  0  0  0  0
   -3.4614    2.5369    0.3479 C   0  0  0  0  0  0  0  0  0  0  0  0
   -4.3623    1.4960    0.5724 C   0  0  0  0  0  0  0  0  0  0  0  0
   -2.3075   -1.4912   -0.3427 C   0  0  0  0  0  0  0  0  0  0  0  0
   -2.6923   -3.7354    0.3625 C   0  0  0  0  0  0  0  0  0  0  0  0
    1.9125    0.1942   -1.3368 H   0  0  0  0  0  0  0  0  0  0  0  0
    2.4684    1.5191    1.3698 H   0  0  0  0  0  0  0  0  0  0  0  0
    1.5156   -1.9386   -0.1192 H   0  0  0  0  0  0  0  0  0  0  0  0
    2.0717   -1.2110    1.3782 H   0  0  0  0  0  0  0  0  0  0  0  0
    3.6952   -1.8234   -1.1297 H   0  0  0  0  0  0  0  0  0  0  0  0
    3.9225   -2.4321    0.5107 H   0  0  0  0  0  0  0  0  0  0  0  0
    4.9534    1.6025    0.6058 H   0  0  0  0  0  0  0  0  0  0  0  0
    1.6310    2.9646   -0.4692 H   0  0  0  0  0  0  0  0  0  0  0  0
    3.2981    3.3673   -0.0514 H   0  0  0  0  0  0  0  0  0  0  0  0
    2.9587    2.4308   -1.5152 H   0  0  0  0  0  0  0  0  0  0  0  0
    0.1593    0.5336    1.2034 H   0  0  0  0  0  0  0  0  0  0  0  0
    6.2539   -1.5390    1.0063 H   0  0  0  0  0  0  0  0  0  0  0  0
    6.7177    0.0506    0.3847 H   0  0  0  0  0  0  0  0  0  0  0  0
    6.3533   -1.2591   -0.7463 H   0  0  0  0  0  0  0  0  0  0  0  0
   -1.4779    3.0757   -0.2792 H   0  0  0  0  0  0  0  0  0  0  0  0
   -4.7054   -0.6099    0.5141 H   0  0  0  0  0  0  0  0  0  0  0  0
   -3.7639    3.5647    0.5257 H   0  0  0  0  0  0  0  0  0  0  0  0
   -5.3670    1.7141    0.9227 H   0  0  0  0  0  0  0  0  0  0  0  0
   -2.9561   -4.0820   -0.6410 H   0  0  0  0  0  0  0  0  0  0  0  0
   -3.2978   -4.2775    1.0935 H   0  0  0  0  0  0  0  0  0  0  0  0
   -1.6349   -3.9238    0.5710 H   0  0  0  0  0  0  0  0  0  0  0  0
  1 19  1  0  0  0  0
  1 20  1  0  0  0  0
  2 19  2  0  0  0  0
  3 11  2  0  0  0  0
  3 13  1  0  0  0  0
  4  5  1  0  0  0  0
  4  6  1  0  0  0  0
  4 11  1  0  0  0  0
  4 21  1  0  0  0  0
  5  8  1  0  0  0  0
  5 10  1  0  0  0  0
  5 22  1  0  0  0  0
  6  7  1  0  0  0  0
  6 23  1  0  0  0  0
  6 24  1  0  0  0  0
  7  9  1  0  0  0  0
  7 25  1  0  0  0  0
  7 26  1  0  0  0  0
  8  9  2  0  0  0  0
  8 27  1  0  0  0  0
  9 12  1  0  0  0  0
 10 28  1  0  0  0  0
 10 29  1  0  0  0  0
 10 30  1  0  0  0  0
 11 31  1  0  0  0  0
 12 32  1  0  0  0  0
 12 33  1  0  0  0  0
 12 34  1  0  0  0  0
 13 14  1  0  0  0  0
 13 15  2  0  0  0  0
 14 16  2  0  0  0  0
 14 19  1  0  0  0  0
 15 17  1  0  0  0  0
 15 35  1  0  0  0  0
 16 18  1  0  0  0  0
 16 36  1  0  0  0  0
 17 18  2  0  0  0  0
 17 37  1  0  0  0  0
 18 38  1  0  0  0  0
 20 39  1  0  0  0  0
 20 40  1  0  0  0  0
 20 41  1  0  0  0  0
M  END
> <PUBCHEM_COMPOUND_CID>
111378

> <PUBCHEM_CONFORMER_RMSD>
0.6

> <PUBCHEM_CONFORMER_DIVERSEORDER>
1
45
156
37
33
105
128
48
27
107
87
110
82
83
127
24
85
144
91
150
69
154
142
31
131
7
103
4
16
117
78
6
169
104
114
70
115
125
88
12
158
124
26
92
116
40
51
60
35
58
165
119
111
59
168
106
52
42
157
11
32
146
109
10
147
90
15
54
121
71
137
36
22
20
13
3
153
160
159
139
44
64
46
61
68
80
41
62
57
141
2
161
39
120
151
38
84
17
47
76
95
18
167
132
75
14
89
126
129
133
30
164
101
43
99
94
100
66
143
134
96
145
152
28
19
138
72
53
5
155
50
67
149
55
136
21
130
81
63
135
166
25
102
140
113
65
112
162
122
163
8
123
79
74
148
98
9
97
34
118
23
108
29
86
93
73
77
56
49

> <PUBCHEM_MMFF94_PARTIAL_CHARGES>
24
1 -0.43
11 0.33
12 0.14
13 0.18
14 0.09
15 -0.15
16 -0.15
17 -0.15
18 -0.15
19 0.63
2 -0.57
20 0.28
27 0.15
3 -0.63
31 0.06
35 0.15
36 0.15
37 0.15
38 0.15
4 0.06
5 0.14
7 0.14
8 -0.29
9 -0.28

> <PUBCHEM_EFFECTIVE_ROTOR_COUNT>
4.8

> <PUBCHEM_PHARMACOPHORE_FEATURES>
4
1 2 acceptor
1 3 acceptor
6 13 14 15 16 17 18 rings
6 4 5 6 7 8 9 rings

> <PUBCHEM_HEAVY_ATOM_COUNT>
20

> <PUBCHEM_ATOM_DEF_STEREO_COUNT>
0

> <PUBCHEM_ATOM_UDEF_STEREO_COUNT>
2

> <PUBCHEM_BOND_DEF_STEREO_COUNT>
0

> <PUBCHEM_BOND_UDEF_STEREO_COUNT>
0

> <PUBCHEM_ISOTOPIC_ATOM_COUNT>
0

> <PUBCHEM_COMPONENT_COUNT>
1

> <PUBCHEM_CACTVS_TAUTO_COUNT>
3

> <PUBCHEM_CONFORMER_ID>
0001B31200000001

> <PUBCHEM_MMFF94_ENERGY>
43.8986

> <PUBCHEM_FEATURE_SELFOVERLAP>
20.303

> <PUBCHEM_SHAPE_FINGERPRINT>
10616163 171 18411983602103313830
11405975 8 18412260649353591600
12251169 10 18410293583948576964
12500047 106 18340199704798099785
12633257 1 18409164385712273828
13004483 165 18055060223890127375
13140716 1 18411979191430285704
13167823 11 18408602587131808848
13583140 156 17703500112434397616
13675066 3 17988637511059074792
138480 1 17185876091291590955
14178342 30 18337375119956565488
14341114 176 18411142428806283840
14420673 8 18267589009805518534
14965852 173 18411133641055081436
15042514 8 18337396045454144675
15196674 1 18410572929206720298
15209289 33 18040436581547921954
15295992 7 17561356301167195985
17492 89 18264771141633354386
1813 80 17168150001188555004
19050596 39 18410291441039392996
19141452 34 18408323267680191005
20681677 155 18340202990764358770
21033648 29 18193257629483930849
21065198 57 18411699894017669000
21065199 12 18343016744130811480
21267235 1 18410018731784705528
221490 88 18337392759651052466
22224240 67 18270972233344353177
23402539 116 18271799117279771461
23558518 356 18188776183402393888
23559900 14 18339353166934228720
23566358 27 18115881856710504156
23598288 3 18271807981469460063
23622692 118 18200863101636016063
23728640 28 18411700989461481675
312423 11 18188496907501718892
3545911 37 18342175527499298312
4214541 1 18411699867963119504
5104073 3 18412256272998052376
5364581 5 18055894714787627856
53777708 50 18263651825753231484
5486654 36 18260832617825649338
58051976 100 18410576197244368068
5924683 9 18130496535302280495
7097593 13 18334852784263301290
77779 3 18411699889770232840
9709674 26 18342461430281446751

> <PUBCHEM_SHAPE_MULTIPOLES>
394.87
10.75
3.28
0.78
9.62
1.76
0.06
0.17
-1.78
-3.31
-0.13
-0.15
0.04
-0.27

> <PUBCHEM_SHAPE_SELFOVERLAP>
824.133

> <PUBCHEM_SHAPE_VOLUME>
223.9

> <PUBCHEM_COORDINATE_TYPE>
2
5
10

$$$$
