111369
  -OEChem-11232109203D

 31 30  0     1  0  0  0  0  0999 V2000
   -3.8348    0.2415   -1.0728 O   0  0  0  0  0  0  0  0  0  0  0  0
    3.0667    2.1577   -0.5865 N   0  0  0  0  0  0  0  0  0  0  0  0
   -0.3578   -0.5024    0.2427 C   0  0  0  0  0  0  0  0  0  0  0  0
   -1.5882   -0.4346   -0.6680 C   0  0  0  0  0  0  0  0  0  0  0  0
    0.8645   -1.0219   -0.5238 C   0  0  0  0  0  0  0  0  0  0  0  0
   -2.8635    0.1424   -0.0221 C   0  0  0  0  0  0  0  0  0  0  0  0
    2.1368   -1.1311    0.3431 C   0  0  2  0  0  0  0  0  0  0  0  0
   -2.6424    1.5484    0.5397 C   0  0  0  0  0  0  0  0  0  0  0  0
   -3.4370   -0.7825    1.0536 C   0  0  0  0  0  0  0  0  0  0  0  0
    2.5303    0.1758    1.0577 C   0  0  0  0  0  0  0  0  0  0  0  0
    3.2962   -1.6758   -0.5006 C   0  0  0  0  0  0  0  0  0  0  0  0
    2.8292    1.2825    0.1372 C   0  0  0  0  0  0  0  0  0  0  0  0
   -0.5561   -1.1555    1.0993 H   0  0  0  0  0  0  0  0  0  0  0  0
   -0.1462    0.4982    0.6285 H   0  0  0  0  0  0  0  0  0  0  0  0
   -1.8075   -1.4360   -1.0627 H   0  0  0  0  0  0  0  0  0  0  0  0
   -1.3380    0.1678   -1.5527 H   0  0  0  0  0  0  0  0  0  0  0  0
    1.0563   -0.3691   -1.3849 H   0  0  0  0  0  0  0  0  0  0  0  0
    0.6309   -2.0129   -0.9343 H   0  0  0  0  0  0  0  0  0  0  0  0
    1.9354   -1.8726    1.1284 H   0  0  0  0  0  0  0  0  0  0  0  0
    3.4178   -0.0138    1.6750 H   0  0  0  0  0  0  0  0  0  0  0  0
    1.7461    0.4791    1.7594 H   0  0  0  0  0  0  0  0  0  0  0  0
   -2.1969    2.2065   -0.2149 H   0  0  0  0  0  0  0  0  0  0  0  0
   -3.5986    2.0052    0.8205 H   0  0  0  0  0  0  0  0  0  0  0  0
   -1.9980    1.5450    1.4240 H   0  0  0  0  0  0  0  0  0  0  0  0
   -4.4045   -0.4091    1.4086 H   0  0  0  0  0  0  0  0  0  0  0  0
   -3.6233   -1.7830    0.6472 H   0  0  0  0  0  0  0  0  0  0  0  0
   -2.7685   -0.8752    1.9147 H   0  0  0  0  0  0  0  0  0  0  0  0
    3.0472   -2.6639   -0.9026 H   0  0  0  0  0  0  0  0  0  0  0  0
    3.5271   -1.0211   -1.3472 H   0  0  0  0  0  0  0  0  0  0  0  0
    4.2020   -1.7839    0.1054 H   0  0  0  0  0  0  0  0  0  0  0  0
   -3.5023    0.8732   -1.7333 H   0  0  0  0  0  0  0  0  0  0  0  0
  1  6  1  0  0  0  0
  1 31  1  0  0  0  0
  2 12  3  0  0  0  0
  3  4  1  0  0  0  0
  3  5  1  0  0  0  0
  3 13  1  0  0  0  0
  3 14  1  0  0  0  0
  4  6  1  0  0  0  0
  4 15  1  0  0  0  0
  4 16  1  0  0  0  0
  5  7  1  0  0  0  0
  5 17  1  0  0  0  0
  5 18  1  0  0  0  0
  6  8  1  0  0  0  0
  6  9  1  0  0  0  0
  7 10  1  0  0  0  0
  7 11  1  0  0  0  0
  7 19  1  0  0  0  0
  8 22  1  0  0  0  0
  8 23  1  0  0  0  0
  8 24  1  0  0  0  0
  9 25  1  0  0  0  0
  9 26  1  0  0  0  0
  9 27  1  0  0  0  0
 10 12  1  0  0  0  0
 10 20  1  0  0  0  0
 10 21  1  0  0  0  0
 11 28  1  0  0  0  0
 11 29  1  0  0  0  0
 11 30  1  0  0  0  0
M  END
> <PUBCHEM_COMPOUND_CID>
111369

> <PUBCHEM_CONFORMER_RMSD>
0.6

> <PUBCHEM_CONFORMER_DIVERSEORDER>
2
87
92
16
19
35
66
71
85
97
58
40
98
42
15
94
77
52
22
73
4
93
61
95
91
89
82
36
70
8
32
27
96
43
72
90
11
46
84
18
25
75
83
3
74
29
60
44
99
88
9
14
64
76
49
20
79
47
10
62
6
86
38
56
39
1
81
59
78
5
65
13
7
80
37
34
33
12
26
55
68
67
48
50
51
57
45
53
69
31
24
28
63
17
54
21
30
23
41

> <PUBCHEM_MMFF94_PARTIAL_CHARGES>
6
1 -0.68
10 0.2
12 0.36
2 -0.56
31 0.4
6 0.28

> <PUBCHEM_EFFECTIVE_ROTOR_COUNT>
5

> <PUBCHEM_PHARMACOPHORE_FEATURES>
6
1 1 acceptor
1 1 donor
1 11 hydrophobe
1 2 acceptor
3 6 8 9 hydrophobe
5 3 4 5 7 10 hydrophobe

> <PUBCHEM_HEAVY_ATOM_COUNT>
12

> <PUBCHEM_ATOM_DEF_STEREO_COUNT>
0

> <PUBCHEM_ATOM_UDEF_STEREO_COUNT>
1

> <PUBCHEM_BOND_DEF_STEREO_COUNT>
0

> <PUBCHEM_BOND_UDEF_STEREO_COUNT>
0

> <PUBCHEM_ISOTOPIC_ATOM_COUNT>
0

> <PUBCHEM_COMPONENT_COUNT>
1

> <PUBCHEM_CACTVS_TAUTO_COUNT>
1

> <PUBCHEM_CONFORMER_ID>
0001B30900000002

> <PUBCHEM_MMFF94_ENERGY>
17.2301

> <PUBCHEM_FEATURE_SELFOVERLAP>
30.45

> <PUBCHEM_SHAPE_FINGERPRINT>
10149128 111 18411418457563886048
11031198 65 18272655700845274874
12162725 195 18342453708056407089
122479 349 18056488244908124665
12932764 1 17346595296267595067
13296908 3 18334016085979503835
13380535 21 18270970175152976678
13618510 140 18410574032596915292
14123255 52 18194963174324718260
14250199 8 18411980243348905845
15775835 57 17917710244548654792
17041 50 18266179427049688718
170605 34 18260547878858253912
18186145 218 18261674783455186395
20279233 1 17458337537838481059
20339313 130 18270970042319940982
20645477 70 18341324509625724655
20671657 1 18413389852211447998
20711983 171 17775006752204371145
20742870 56 10303548177252075578
22169311 14 17385713677915991258
2255824 54 18411135806067108998
22959321 28 18340211881225510913
230 275 18413101767042659506
23380061 50 17822005424178464305
23380061 81 18412830174717222514
3248919 1 18411692180055938899
9882013 296 17896042220471186379

> <PUBCHEM_SHAPE_MULTIPOLES>
236.1
7.39
1.81
1.01
2.39
0.7
-0.07
0.8
0.09
-1.68
0.17
0.31
-0.03
0.04

> <PUBCHEM_SHAPE_SELFOVERLAP>
436.298

> <PUBCHEM_SHAPE_VOLUME>
148.1

> <PUBCHEM_COORDINATE_TYPE>
2
5
10

$$$$
