11138191
  -OEChem-11232109123D

 27 28  0     0  0  0  0  0  0999 V2000
    1.3291   -1.4288    0.3410 O   0  0  0  0  0  0  0  0  0  0  0  0
    1.8896    1.4391   -0.3491 O   0  0  0  0  0  0  0  0  0  0  0  0
    4.6315   -0.6480   -0.2633 O   0  0  0  0  0  0  0  0  0  0  0  0
    0.3968   -0.4279    0.2581 C   0  0  0  0  0  0  0  0  0  0  0  0
   -1.9632    0.0930    0.4823 C   0  0  0  0  0  0  0  0  0  0  0  0
    0.6557    0.9057   -0.0826 C   0  0  0  0  0  0  0  0  0  0  0  0
   -0.9121   -0.8193    0.5670 C   0  0  0  0  0  0  0  0  0  0  0  0
   -1.7127    1.4054    0.0933 C   0  0  0  0  0  0  0  0  0  0  0  0
   -3.3547   -0.3397    0.7989 C   0  0  0  0  0  0  0  0  0  0  0  0
   -0.4086    1.8094   -0.1906 C   0  0  0  0  0  0  0  0  0  0  0  0
    2.3713   -1.3555   -0.6195 C   0  0  0  0  0  0  0  0  0  0  0  0
    2.9507    0.9105    0.4311 C   0  0  0  0  0  0  0  0  0  0  0  0
    3.4336   -0.3892   -0.1608 C   0  0  0  0  0  0  0  0  0  0  0  0
   -4.0996   -0.8579   -0.4041 C   0  0  0  0  0  0  0  0  0  0  0  0
   -5.2074   -0.2969   -0.9017 C   0  0  0  0  0  0  0  0  0  0  0  0
   -1.1095   -1.8503    0.8541 H   0  0  0  0  0  0  0  0  0  0  0  0
   -2.5219    2.1266    0.0139 H   0  0  0  0  0  0  0  0  0  0  0  0
   -3.3345   -1.1299    1.5606 H   0  0  0  0  0  0  0  0  0  0  0  0
   -3.9002    0.4913    1.2656 H   0  0  0  0  0  0  0  0  0  0  0  0
   -0.2238    2.8418   -0.4777 H   0  0  0  0  0  0  0  0  0  0  0  0
    2.0042   -1.0801   -1.6152 H   0  0  0  0  0  0  0  0  0  0  0  0
    2.8197   -2.3518   -0.6913 H   0  0  0  0  0  0  0  0  0  0  0  0
    2.6698    0.7742    1.4821 H   0  0  0  0  0  0  0  0  0  0  0  0
    3.7733    1.6323    0.3950 H   0  0  0  0  0  0  0  0  0  0  0  0
   -3.7133   -1.7548   -0.8825 H   0  0  0  0  0  0  0  0  0  0  0  0
   -5.6995   -0.7262   -1.7676 H   0  0  0  0  0  0  0  0  0  0  0  0
   -5.6393    0.5940   -0.4594 H   0  0  0  0  0  0  0  0  0  0  0  0
  1  4  1  0  0  0  0
  1 11  1  0  0  0  0
  2  6  1  0  0  0  0
  2 12  1  0  0  0  0
  3 13  2  0  0  0  0
  4  6  2  0  0  0  0
  4  7  1  0  0  0  0
  5  7  2  0  0  0  0
  5  8  1  0  0  0  0
  5  9  1  0  0  0  0
  6 10  1  0  0  0  0
  7 16  1  0  0  0  0
  8 10  2  0  0  0  0
  8 17  1  0  0  0  0
  9 14  1  0  0  0  0
  9 18  1  0  0  0  0
  9 19  1  0  0  0  0
 10 20  1  0  0  0  0
 11 13  1  0  0  0  0
 11 21  1  0  0  0  0
 11 22  1  0  0  0  0
 12 13  1  0  0  0  0
 12 23  1  0  0  0  0
 12 24  1  0  0  0  0
 14 15  2  0  0  0  0
 14 25  1  0  0  0  0
 15 26  1  0  0  0  0
 15 27  1  0  0  0  0
M  END
> <PUBCHEM_COMPOUND_CID>
11138191

> <PUBCHEM_CONFORMER_RMSD>
0.6

> <PUBCHEM_CONFORMER_DIVERSEORDER>
1
11
9
18
5
15
4
16
14
13
8
12
7
10
17
6
3
2
19

> <PUBCHEM_MMFF94_PARTIAL_CHARGES>
21
1 -0.36
10 -0.15
11 0.34
12 0.34
13 0.45
14 -0.29
15 -0.3
16 0.15
17 0.15
2 -0.36
20 0.15
25 0.15
26 0.15
27 0.15
3 -0.57
4 0.08
5 -0.14
6 0.08
7 -0.15
8 -0.15
9 0.28

> <PUBCHEM_EFFECTIVE_ROTOR_COUNT>
2.8

> <PUBCHEM_PHARMACOPHORE_FEATURES>
6
1 1 acceptor
1 15 hydrophobe
1 2 acceptor
1 3 acceptor
6 4 5 6 7 8 10 rings
7 1 2 4 6 11 12 13 rings

> <PUBCHEM_HEAVY_ATOM_COUNT>
15

> <PUBCHEM_ATOM_DEF_STEREO_COUNT>
0

> <PUBCHEM_ATOM_UDEF_STEREO_COUNT>
0

> <PUBCHEM_BOND_DEF_STEREO_COUNT>
0

> <PUBCHEM_BOND_UDEF_STEREO_COUNT>
0

> <PUBCHEM_ISOTOPIC_ATOM_COUNT>
0

> <PUBCHEM_COMPONENT_COUNT>
1

> <PUBCHEM_CACTVS_TAUTO_COUNT>
3

> <PUBCHEM_CONFORMER_ID>
00A9F48F00000001

> <PUBCHEM_MMFF94_ENERGY>
48.2492

> <PUBCHEM_FEATURE_SELFOVERLAP>
30.46

> <PUBCHEM_SHAPE_FINGERPRINT>
11132069 177 18338792424382526882
11401426 45 18408598188905943153
11471102 20 18408603694700731644
11806522 49 18412826897414491567
12032990 46 18334866042822011043
12236239 1 17917996101119858171
13581323 91 16630526223911906397
13690532 89 18409729564532195219
13760787 5 18262249892587752929
13862211 1 18410009910497386234
14115302 16 17676498271087271327
14251717 144 18412825810898658927
14289901 80 15338851879856156931
14576447 43 18342449379004173231
14911166 2 18186801387594167259
14943859 89 13551189987772547929
14993402 34 18341894108388733095
15536298 74 18343302591083620464
15848700 24 18410008849112657684
16945 1 18261686929548787960
17802600 8 18410291402395061520
18186145 218 17676483973768578521
19026448 5 17203619198175269593
200 152 18273492373433264509
20201158 50 18334018289060310955
20645477 70 18411419531442899279
21029758 11 18411418427436006481
21267235 1 18411710893471267875
21501502 16 18119529842927862946
21501925 9 18410853261368773952
22079108 93 16199853056121335154
221490 88 18047195430074998251
23402539 116 18411978035841139231
23402655 69 18409726236449551181
23557571 272 18059580139533375893
23559900 14 18260268585846287872
2748010 2 18264210214271782932
2871803 45 18334856091203626326
3286 77 17704069607638442272
4047638 21 10953455215253262993
4072396 5 18042102345663609890
581208 293 18412544348743514168
69090 78 18273213118506584342
7364860 26 18267311000804125084
76465 3 18338510825210960738

> <PUBCHEM_SHAPE_MULTIPOLES>
291.09
8.27
1.58
0.82
3.93
0.4
0
-2.5
1.79
-0.49
0.11
0.41
-0.08
0.08

> <PUBCHEM_SHAPE_SELFOVERLAP>
616.997

> <PUBCHEM_SHAPE_VOLUME>
161.6

> <PUBCHEM_COORDINATE_TYPE>
2
5
10

$$$$
