111418
  -OEChem-11232108403D

 41 43  0     1  0  0  0  0  0999 V2000
   -2.9877    0.6371    0.7682 O   0  0  0  0  0  0  0  0  0  0  0  0
   -3.0269   -1.1774   -0.7218 O   0  0  0  0  0  0  0  0  0  0  0  0
   -0.0740    0.7329    0.7295 C   0  0  1  0  0  0  0  0  0  0  0  0
    1.9956   -0.6815    0.3035 C   0  0  2  0  0  0  0  0  0  0  0  0
    1.2903   -0.5434   -1.0754 C   0  0  1  0  0  0  0  0  0  0  0  0
   -0.9144   -0.4573    0.1824 C   0  0  2  0  0  0  0  0  0  0  0  0
    1.2127    0.1457    1.3630 C   0  0  0  0  0  0  0  0  0  0  0  0
   -0.1202   -1.1687   -0.9501 C   0  0  0  0  0  0  0  0  0  0  0  0
    0.3765    1.5938   -0.4415 C   0  0  0  0  0  0  0  0  0  0  0  0
    3.4670   -0.2690    0.2514 C   0  0  0  0  0  0  0  0  0  0  0  0
    1.0840    0.9284   -1.3720 C   0  0  0  0  0  0  0  0  0  0  0  0
   -2.2882   -0.0259   -0.2938 C   0  0  0  0  0  0  0  0  0  0  0  0
    0.0322    3.0411   -0.4814 C   0  0  0  0  0  0  0  0  0  0  0  0
    4.1236   -0.4568    1.6165 C   0  0  0  0  0  0  0  0  0  0  0  0
    4.2088   -1.0671   -0.8175 C   0  0  0  0  0  0  0  0  0  0  0  0
   -4.0505   -0.2515    1.1123 C   0  0  0  0  0  0  0  0  0  0  0  0
   -4.3288   -0.9804   -0.1735 C   0  0  0  0  0  0  0  0  0  0  0  0
   -0.6223    1.3152    1.4771 H   0  0  0  0  0  0  0  0  0  0  0  0
    1.9473   -1.7388    0.6028 H   0  0  0  0  0  0  0  0  0  0  0  0
    1.8196   -1.0411   -1.8909 H   0  0  0  0  0  0  0  0  0  0  0  0
   -1.0525   -1.1795    0.9999 H   0  0  0  0  0  0  0  0  0  0  0  0
    1.8061    0.9794    1.7569 H   0  0  0  0  0  0  0  0  0  0  0  0
    0.9576   -0.4938    2.2169 H   0  0  0  0  0  0  0  0  0  0  0  0
   -0.6413   -1.0924   -1.9133 H   0  0  0  0  0  0  0  0  0  0  0  0
   -0.0397   -2.2393   -0.7243 H   0  0  0  0  0  0  0  0  0  0  0  0
    3.5536    0.7941   -0.0073 H   0  0  0  0  0  0  0  0  0  0  0  0
    1.4830    1.3898   -2.2657 H   0  0  0  0  0  0  0  0  0  0  0  0
   -2.2268    0.6702   -1.1379 H   0  0  0  0  0  0  0  0  0  0  0  0
   -1.0541    3.1741   -0.4732 H   0  0  0  0  0  0  0  0  0  0  0  0
    0.4241    3.5259   -1.3813 H   0  0  0  0  0  0  0  0  0  0  0  0
    0.4523    3.5555    0.3885 H   0  0  0  0  0  0  0  0  0  0  0  0
    4.0302   -1.4923    1.9620 H   0  0  0  0  0  0  0  0  0  0  0  0
    5.1930   -0.2231    1.5626 H   0  0  0  0  0  0  0  0  0  0  0  0
    3.7003    0.1955    2.3848 H   0  0  0  0  0  0  0  0  0  0  0  0
    4.0282   -2.1427   -0.7168 H   0  0  0  0  0  0  0  0  0  0  0  0
    5.2899   -0.9051   -0.7380 H   0  0  0  0  0  0  0  0  0  0  0  0
    3.9282   -0.7580   -1.8285 H   0  0  0  0  0  0  0  0  0  0  0  0
   -4.9114    0.3031    1.4931 H   0  0  0  0  0  0  0  0  0  0  0  0
   -3.6844   -0.9317    1.8890 H   0  0  0  0  0  0  0  0  0  0  0  0
   -4.8384   -1.9363   -0.0298 H   0  0  0  0  0  0  0  0  0  0  0  0
   -4.9035   -0.3625   -0.8721 H   0  0  0  0  0  0  0  0  0  0  0  0
  1 12  1  0  0  0  0
  1 16  1  0  0  0  0
  2 12  1  0  0  0  0
  2 17  1  0  0  0  0
  3  6  1  0  0  0  0
  3  7  1  0  0  0  0
  3  9  1  0  0  0  0
  3 18  1  0  0  0  0
  4  5  1  0  0  0  0
  4  7  1  0  0  0  0
  4 10  1  0  0  0  0
  4 19  1  0  0  0  0
  5  8  1  0  0  0  0
  5 11  1  0  0  0  0
  5 20  1  0  0  0  0
  6  8  1  0  0  0  0
  6 12  1  0  0  0  0
  6 21  1  0  0  0  0
  7 22  1  0  0  0  0
  7 23  1  0  0  0  0
  8 24  1  0  0  0  0
  8 25  1  0  0  0  0
  9 11  2  0  0  0  0
  9 13  1  0  0  0  0
 10 14  1  0  0  0  0
 10 15  1  0  0  0  0
 10 26  1  0  0  0  0
 11 27  1  0  0  0  0
 12 28  1  0  0  0  0
 13 29  1  0  0  0  0
 13 30  1  0  0  0  0
 13 31  1  0  0  0  0
 14 32  1  0  0  0  0
 14 33  1  0  0  0  0
 14 34  1  0  0  0  0
 15 35  1  0  0  0  0
 15 36  1  0  0  0  0
 15 37  1  0  0  0  0
 16 17  1  0  0  0  0
 16 38  1  0  0  0  0
 16 39  1  0  0  0  0
 17 40  1  0  0  0  0
 17 41  1  0  0  0  0
M  END
> <PUBCHEM_COMPOUND_CID>
111418

> <PUBCHEM_CONFORMER_RMSD>
0.6

> <PUBCHEM_CONFORMER_DIVERSEORDER>
2
10
3
9
11
7
4
12
14
6
13
1
8
5

> <PUBCHEM_MMFF94_PARTIAL_CHARGES>
11
1 -0.56
11 -0.29
12 0.56
13 0.14
16 0.28
17 0.28
2 -0.56
27 0.15
3 0.14
5 0.14
9 -0.28

> <PUBCHEM_EFFECTIVE_ROTOR_COUNT>
3.8

> <PUBCHEM_PHARMACOPHORE_FEATURES>
5
1 1 acceptor
1 2 acceptor
3 10 14 15 hydrophobe
5 1 2 12 16 17 rings
8 3 4 5 6 7 8 9 11 rings

> <PUBCHEM_HEAVY_ATOM_COUNT>
17

> <PUBCHEM_ATOM_DEF_STEREO_COUNT>
0

> <PUBCHEM_ATOM_UDEF_STEREO_COUNT>
4

> <PUBCHEM_BOND_DEF_STEREO_COUNT>
0

> <PUBCHEM_BOND_UDEF_STEREO_COUNT>
0

> <PUBCHEM_ISOTOPIC_ATOM_COUNT>
0

> <PUBCHEM_COMPONENT_COUNT>
1

> <PUBCHEM_CACTVS_TAUTO_COUNT>
1

> <PUBCHEM_CONFORMER_ID>
0001B33A00000002

> <PUBCHEM_MMFF94_ENERGY>
52.8667

> <PUBCHEM_FEATURE_SELFOVERLAP>
25.412

> <PUBCHEM_SHAPE_FINGERPRINT>
10130415 120 18187651322650698965
10219947 1 18411982472447455854
10465860 250 18113610179603153745
10922049 32 10663817520221507916
11132069 177 18059847346887042682
11543360 7 14634878564745234234
12119455 92 12967129389311889944
121448 382 8646475311338572429
12251169 10 17560792273182062738
12423570 1 13317851290765694524
12633257 1 18047787981206781643
12892183 10 17418370307232849602
13134695 92 18187357783269564621
13380536 53 18060702775528616500
13581323 91 18060418036229184511
13675066 3 17917714599666715251
13705890 14 15791733005385975666
14178342 30 18059870437021830523
14181834 199 18265337385478564964
14787075 74 17968097585801175032
14943859 89 11671774975353200398
14993402 34 18335140907728248894
15219456 202 15338848533754776053
15309172 13 11527945642846266957
15375462 189 17821442460950017610
15501101 241 17918554626560612816
15775835 57 9151176437296931939
16945 1 18338226081842745918
1813 80 18408888425584315388
18175812 5 17131832053848613694
18186145 218 16805613576658395278
18222031 100 18411414024936038742
19010151 120 18334579027306060936
200 152 16805598132441477554
201361 129 9078577909139215191
20339313 130 18336273421895146789
20388701 513 18340486643031304788
204376 136 11455884780211671721
20671657 53 16587744213701140342
20711985 327 18412547621561419197
21296965 67 18259981565729369772
21501502 16 18049728709007257127
21524375 3 17474678724538074733
22112679 90 18265358143018836228
231179 274 9583527490350675507
23402539 116 18409445856161915159
23402655 69 13768196204043126263
23419403 2 16120146232070255108
23526113 38 13334744513895663180
23532345 42 18342454846412657478
23557571 272 18269562645413048725
23559900 14 16988298537910836908
2748010 2 17983028747452705405
276578 36 10807938154426567580
296302 2 15554447405237824451
3286 77 17968660535796560527
4175511 71 18408889563534760605
45790113 50 16343706500368426554
458136 41 10519718816198700061
4990 188 12757150186151519082
7364860 26 18195809797766266405
74978 22 18262804111183852443
81228 2 18119544140848052640

> <PUBCHEM_SHAPE_MULTIPOLES>
338.11
7.25
1.78
1.36
1.9
1.76
-0.18
-3.73
-1.6
0.07
0.44
-0.66
-0.11
-0.23

> <PUBCHEM_SHAPE_SELFOVERLAP>
711.147

> <PUBCHEM_SHAPE_VOLUME>
190.2

> <PUBCHEM_COORDINATE_TYPE>
2
5
10

$$$$
