111402
  -OEChem-11232109123D

 40 42  0     1  0  0  0  0  0999 V2000
    2.4011   -1.6227    1.4478 O   0  0  0  0  0  0  0  0  0  0  0  0
   -0.6517   -0.6533   -0.2876 C   0  0  2  0  0  0  0  0  0  0  0  0
   -0.8231    0.5237    0.7245 C   0  0  1  0  0  0  0  0  0  0  0  0
    0.1712    1.6342    0.2441 C   0  0  0  0  0  0  0  0  0  0  0  0
    1.0444    0.9019   -0.8354 C   0  0  2  0  0  0  0  0  0  0  0  0
    0.0050    0.0071   -1.5119 C   0  0  0  0  0  0  0  0  0  0  0  0
   -2.0763   -1.1577   -0.6018 C   0  0  2  0  0  0  0  0  0  0  0  0
   -2.3280    0.8307    0.7535 C   0  0  0  0  0  0  0  0  0  0  0  0
    0.3258   -1.7105    0.2545 C   0  0  0  0  0  0  0  0  0  0  0  0
   -2.9323    0.1055   -0.4432 C   0  0  0  0  0  0  0  0  0  0  0  0
    2.1989    0.0346   -0.2780 C   0  0  1  0  0  0  0  0  0  0  0  0
    1.6878   -1.1180    0.5783 C   0  0  0  0  0  0  0  0  0  0  0  0
    0.9842    2.1766    1.4326 C   0  0  0  0  0  0  0  0  0  0  0  0
   -0.5132    2.8555   -0.4118 C   0  0  0  0  0  0  0  0  0  0  0  0
   -2.5831   -2.2714    0.3174 C   0  0  0  0  0  0  0  0  0  0  0  0
    3.0893   -0.5362   -1.3832 C   0  0  0  0  0  0  0  0  0  0  0  0
   -0.5442    0.1942    1.7346 H   0  0  0  0  0  0  0  0  0  0  0  0
    1.4586    1.6220   -1.5515 H   0  0  0  0  0  0  0  0  0  0  0  0
   -0.7018    0.6031   -2.0982 H   0  0  0  0  0  0  0  0  0  0  0  0
    0.4332   -0.7249   -2.2033 H   0  0  0  0  0  0  0  0  0  0  0  0
   -2.1427   -1.5241   -1.6335 H   0  0  0  0  0  0  0  0  0  0  0  0
   -2.5846    1.8913    0.7684 H   0  0  0  0  0  0  0  0  0  0  0  0
   -2.7541    0.4072    1.6725 H   0  0  0  0  0  0  0  0  0  0  0  0
    0.4732   -2.5128   -0.4771 H   0  0  0  0  0  0  0  0  0  0  0  0
   -0.0566   -2.1544    1.1804 H   0  0  0  0  0  0  0  0  0  0  0  0
   -3.9940   -0.1140   -0.2916 H   0  0  0  0  0  0  0  0  0  0  0  0
   -2.8559    0.7332   -1.3380 H   0  0  0  0  0  0  0  0  0  0  0  0
    2.8371    0.6605    0.3560 H   0  0  0  0  0  0  0  0  0  0  0  0
    0.3393    2.7313    2.1241 H   0  0  0  0  0  0  0  0  0  0  0  0
    1.4548    1.3789    2.0156 H   0  0  0  0  0  0  0  0  0  0  0  0
    1.7730    2.8563    1.0918 H   0  0  0  0  0  0  0  0  0  0  0  0
   -1.1914    2.5758   -1.2226 H   0  0  0  0  0  0  0  0  0  0  0  0
   -1.0871    3.4355    0.3192 H   0  0  0  0  0  0  0  0  0  0  0  0
    0.2355    3.5354   -0.8358 H   0  0  0  0  0  0  0  0  0  0  0  0
   -2.0164   -3.1947    0.1590 H   0  0  0  0  0  0  0  0  0  0  0  0
   -2.5063   -2.0013    1.3755 H   0  0  0  0  0  0  0  0  0  0  0  0
   -3.6340   -2.4960    0.1048 H   0  0  0  0  0  0  0  0  0  0  0  0
    2.5722   -1.2872   -1.9884 H   0  0  0  0  0  0  0  0  0  0  0  0
    3.4478    0.2573   -2.0465 H   0  0  0  0  0  0  0  0  0  0  0  0
    3.9660   -1.0298   -0.9486 H   0  0  0  0  0  0  0  0  0  0  0  0
  1 12  2  0  0  0  0
  2  3  1  0  0  0  0
  2  6  1  0  0  0  0
  2  7  1  0  0  0  0
  2  9  1  0  0  0  0
  3  4  1  0  0  0  0
  3  8  1  0  0  0  0
  3 17  1  0  0  0  0
  4  5  1  0  0  0  0
  4 13  1  0  0  0  0
  4 14  1  0  0  0  0
  5  6  1  0  0  0  0
  5 11  1  0  0  0  0
  5 18  1  0  0  0  0
  6 19  1  0  0  0  0
  6 20  1  0  0  0  0
  7 10  1  0  0  0  0
  7 15  1  0  0  0  0
  7 21  1  0  0  0  0
  8 10  1  0  0  0  0
  8 22  1  0  0  0  0
  8 23  1  0  0  0  0
  9 12  1  0  0  0  0
  9 24  1  0  0  0  0
  9 25  1  0  0  0  0
 10 26  1  0  0  0  0
 10 27  1  0  0  0  0
 11 12  1  0  0  0  0
 11 16  1  0  0  0  0
 11 28  1  0  0  0  0
 13 29  1  0  0  0  0
 13 30  1  0  0  0  0
 13 31  1  0  0  0  0
 14 32  1  0  0  0  0
 14 33  1  0  0  0  0
 14 34  1  0  0  0  0
 15 35  1  0  0  0  0
 15 36  1  0  0  0  0
 15 37  1  0  0  0  0
 16 38  1  0  0  0  0
 16 39  1  0  0  0  0
 16 40  1  0  0  0  0
M  END
> <PUBCHEM_COMPOUND_CID>
111402

> <PUBCHEM_CONFORMER_RMSD>
0.6

> <PUBCHEM_CONFORMER_DIVERSEORDER>
1
12
5
9
4
7
8
13
6
3
11
10
2

> <PUBCHEM_MMFF94_PARTIAL_CHARGES>
4
1 -0.57
11 0.06
12 0.45
9 0.06

> <PUBCHEM_EFFECTIVE_ROTOR_COUNT>
1.4

> <PUBCHEM_PHARMACOPHORE_FEATURES>
4
1 1 acceptor
3 4 13 14 hydrophobe
5 2 3 7 8 10 rings
8 2 3 4 5 6 9 11 12 rings

> <PUBCHEM_HEAVY_ATOM_COUNT>
16

> <PUBCHEM_ATOM_DEF_STEREO_COUNT>
0

> <PUBCHEM_ATOM_UDEF_STEREO_COUNT>
5

> <PUBCHEM_BOND_DEF_STEREO_COUNT>
0

> <PUBCHEM_BOND_UDEF_STEREO_COUNT>
0

> <PUBCHEM_ISOTOPIC_ATOM_COUNT>
0

> <PUBCHEM_COMPONENT_COUNT>
1

> <PUBCHEM_CACTVS_TAUTO_COUNT>
3

> <PUBCHEM_CONFORMER_ID>
0001B32A00000001

> <PUBCHEM_MMFF94_ENERGY>
67.2629

> <PUBCHEM_FEATURE_SELFOVERLAP>
20.357

> <PUBCHEM_SHAPE_FINGERPRINT>
10863032 1 18271817868436897052
11578080 2 18042379431411117228
12423570 1 9366806064618826471
13024252 1 17677635110481304924
13132413 78 18410865368750004893
13140716 1 18412263951771823233
13172582 1 18200330830950429369
13538477 17 18262803956200967958
14181834 199 17841400886248643997
144361 1 17988652933653540985
14817 1 11289129488316030930
15001771 113 18339655506661219927
15076042 46 17908986500334878906
15375462 189 18187938278132553051
15490181 8 16897374109644372468
16752209 62 18049440340243766877
16945 1 18264209118981074589
19868273 325 18341901765972257694
20511035 2 18129657642463949397
20645477 70 17909829078904620247
20653091 64 18268154347179903497
22112679 90 18411699863589024474
22344851 341 18124873722852493841
22802520 49 17772776908274189294
2334 1 18267865175721986157
23419403 2 16836218457253945657
23552423 10 18121217842679968693
23559900 14 18271815575784003110
241688 4 18339368555675261321
2748010 2 18268141136045097901
5084963 1 17981337990468849013
528886 8 17385726919326629439
53812653 8 18191600648348542284
53812654 25 18340475660852578875
7364860 26 17843124963309272080
81228 2 18127974104998241337

> <PUBCHEM_SHAPE_MULTIPOLES>
323.4
3.79
2.56
1.31
0.41
1.01
-0.01
-1.75
0.32
0.21
-0.56
-0.61
0.03
-0.04

> <PUBCHEM_SHAPE_SELFOVERLAP>
690.56

> <PUBCHEM_SHAPE_VOLUME>
184.6

> <PUBCHEM_COORDINATE_TYPE>
2
5
10

$$$$
