111416
  -OEChem-11232108583D

 46 48  0     1  0  0  0  0  0999 V2000
    5.1247   -0.0011    0.2397 O   0  0  0  0  0  0  0  0  0  0  0  0
   -2.6854   -0.4088    0.8923 C   0  0  0  0  0  0  0  0  0  0  0  0
   -1.2619   -0.3308    0.2408 C   0  0  1  0  0  0  0  0  0  0  0  0
   -3.6115   -0.3151   -0.3684 C   0  0  2  0  0  0  0  0  0  0  0  0
   -1.5801   -0.0901   -1.2590 C   0  0  1  0  0  0  0  0  0  0  0  0
   -2.7823   -1.0171   -1.4533 C   0  0  0  0  0  0  0  0  0  0  0  0
   -3.6418    1.1129   -0.9451 C   0  0  0  0  0  0  0  0  0  0  0  0
   -2.2220    1.2880   -1.5000 C   0  0  0  0  0  0  0  0  0  0  0  0
   -0.2654    0.6517    0.8420 C   0  0  0  0  0  0  0  0  0  0  0  0
   -2.9849    0.6679    1.9460 C   0  0  0  0  0  0  0  0  0  0  0  0
   -2.8754   -1.7771    1.5834 C   0  0  0  0  0  0  0  0  0  0  0  0
    1.0695    0.6214    0.0993 C   0  0  2  0  0  0  0  0  0  0  0  0
    1.6778   -0.7892    0.1381 C   0  0  0  0  0  0  0  0  0  0  0  0
    2.0465    1.6385    0.7048 C   0  0  0  0  0  0  0  0  0  0  0  0
    3.0180   -0.8532   -0.6024 C   0  0  1  0  0  0  0  0  0  0  0  0
    3.3899    1.6254   -0.0110 C   0  0  0  0  0  0  0  0  0  0  0  0
    3.9526    0.2219   -0.0593 C   0  0  0  0  0  0  0  0  0  0  0  0
    3.6318   -2.2451   -0.4879 C   0  0  0  0  0  0  0  0  0  0  0  0
   -0.8407   -1.3388    0.3261 H   0  0  0  0  0  0  0  0  0  0  0  0
   -4.6096   -0.7336   -0.2163 H   0  0  0  0  0  0  0  0  0  0  0  0
   -0.7475   -0.3077   -1.9313 H   0  0  0  0  0  0  0  0  0  0  0  0
   -3.2266   -0.9426   -2.4522 H   0  0  0  0  0  0  0  0  0  0  0  0
   -2.5617   -2.0673   -1.2433 H   0  0  0  0  0  0  0  0  0  0  0  0
   -3.9132    1.8855   -0.2228 H   0  0  0  0  0  0  0  0  0  0  0  0
   -4.3684    1.1739   -1.7649 H   0  0  0  0  0  0  0  0  0  0  0  0
   -2.2700    1.5057   -2.5734 H   0  0  0  0  0  0  0  0  0  0  0  0
   -1.6879    2.1129   -1.0235 H   0  0  0  0  0  0  0  0  0  0  0  0
   -0.1021    0.3933    1.8963 H   0  0  0  0  0  0  0  0  0  0  0  0
   -0.6545    1.6746    0.8356 H   0  0  0  0  0  0  0  0  0  0  0  0
   -4.0397    0.6353    2.2422 H   0  0  0  0  0  0  0  0  0  0  0  0
   -2.3854    0.5128    2.8503 H   0  0  0  0  0  0  0  0  0  0  0  0
   -2.7746    1.6815    1.5948 H   0  0  0  0  0  0  0  0  0  0  0  0
   -2.7110   -2.6189    0.9037 H   0  0  0  0  0  0  0  0  0  0  0  0
   -2.1758   -1.8913    2.4194 H   0  0  0  0  0  0  0  0  0  0  0  0
   -3.8921   -1.8746    1.9809 H   0  0  0  0  0  0  0  0  0  0  0  0
    0.9101    0.9088   -0.9475 H   0  0  0  0  0  0  0  0  0  0  0  0
    1.0238   -1.5209   -0.3445 H   0  0  0  0  0  0  0  0  0  0  0  0
    1.8098   -1.1055    1.1813 H   0  0  0  0  0  0  0  0  0  0  0  0
    2.2015    1.4113    1.7677 H   0  0  0  0  0  0  0  0  0  0  0  0
    1.6205    2.6474    0.6527 H   0  0  0  0  0  0  0  0  0  0  0  0
    2.8617   -0.6299   -1.6654 H   0  0  0  0  0  0  0  0  0  0  0  0
    4.0968    2.2775    0.5129 H   0  0  0  0  0  0  0  0  0  0  0  0
    3.2910    1.9890   -1.0395 H   0  0  0  0  0  0  0  0  0  0  0  0
    4.5736   -2.3030   -1.0442 H   0  0  0  0  0  0  0  0  0  0  0  0
    3.8484   -2.5010    0.5552 H   0  0  0  0  0  0  0  0  0  0  0  0
    2.9558   -3.0052   -0.8932 H   0  0  0  0  0  0  0  0  0  0  0  0
  1 17  2  0  0  0  0
  2  3  1  0  0  0  0
  2  4  1  0  0  0  0
  2 10  1  0  0  0  0
  2 11  1  0  0  0  0
  3  5  1  0  0  0  0
  3  9  1  0  0  0  0
  3 19  1  0  0  0  0
  4  6  1  0  0  0  0
  4  7  1  0  0  0  0
  4 20  1  0  0  0  0
  5  6  1  0  0  0  0
  5  8  1  0  0  0  0
  5 21  1  0  0  0  0
  6 22  1  0  0  0  0
  6 23  1  0  0  0  0
  7  8  1  0  0  0  0
  7 24  1  0  0  0  0
  7 25  1  0  0  0  0
  8 26  1  0  0  0  0
  8 27  1  0  0  0  0
  9 12  1  0  0  0  0
  9 28  1  0  0  0  0
  9 29  1  0  0  0  0
 10 30  1  0  0  0  0
 10 31  1  0  0  0  0
 10 32  1  0  0  0  0
 11 33  1  0  0  0  0
 11 34  1  0  0  0  0
 11 35  1  0  0  0  0
 12 13  1  0  0  0  0
 12 14  1  0  0  0  0
 12 36  1  0  0  0  0
 13 15  1  0  0  0  0
 13 37  1  0  0  0  0
 13 38  1  0  0  0  0
 14 16  1  0  0  0  0
 14 39  1  0  0  0  0
 14 40  1  0  0  0  0
 15 17  1  0  0  0  0
 15 18  1  0  0  0  0
 15 41  1  0  0  0  0
 16 17  1  0  0  0  0
 16 42  1  0  0  0  0
 16 43  1  0  0  0  0
 18 44  1  0  0  0  0
 18 45  1  0  0  0  0
 18 46  1  0  0  0  0
M  END
> <PUBCHEM_COMPOUND_CID>
111416

> <PUBCHEM_CONFORMER_RMSD>
0.6

> <PUBCHEM_CONFORMER_DIVERSEORDER>
11
32
15
26
29
36
19
18
8
28
6
10
14
33
30
34
23
2
3
25
35
9
20
31
27
21
1
4
22
5
24
12
16
17
13
7

> <PUBCHEM_MMFF94_PARTIAL_CHARGES>
4
1 -0.57
15 0.06
16 0.06
17 0.45

> <PUBCHEM_EFFECTIVE_ROTOR_COUNT>
4

> <PUBCHEM_PHARMACOPHORE_FEATURES>
4
1 1 acceptor
3 2 10 11 hydrophobe
6 12 13 14 15 16 17 rings
7 2 3 4 5 6 7 8 rings

> <PUBCHEM_HEAVY_ATOM_COUNT>
18

> <PUBCHEM_ATOM_DEF_STEREO_COUNT>
0

> <PUBCHEM_ATOM_UDEF_STEREO_COUNT>
5

> <PUBCHEM_BOND_DEF_STEREO_COUNT>
0

> <PUBCHEM_BOND_UDEF_STEREO_COUNT>
0

> <PUBCHEM_ISOTOPIC_ATOM_COUNT>
0

> <PUBCHEM_COMPONENT_COUNT>
1

> <PUBCHEM_CACTVS_TAUTO_COUNT>
3

> <PUBCHEM_CONFORMER_ID>
0001B3380000000B

> <PUBCHEM_MMFF94_ENERGY>
60.1727

> <PUBCHEM_FEATURE_SELFOVERLAP>
20.297

> <PUBCHEM_SHAPE_FINGERPRINT>
11615757 297 18131349739045098004
12173636 292 17386276576836233295
12236239 1 17203891868131387004
12553582 1 17775573026657359520
12670546 56 17060334119835106232
13024252 1 17895188918503042925
13083527 12 12820997748503249417
13224815 77 18272930548645269384
13296908 3 17967252013745217544
13764800 53 17167860838183389057
14142880 1 14835861555789202731
14144814 61 16988846089773232420
14386348 63 18113618988713011430
15309172 13 18202568401279110599
15375358 24 18260540121841290718
15375462 189 17703796941824064122
15653759 3 17676207982905948632
15788980 27 18408036300052199438
16752209 62 15769769135598149101
18186145 218 18261401031098712370
19422 9 17847064388991349574
19433438 38 18334848416413365342
19862831 5 18343857823017721032
1986462 14 17167861984496253242
200 152 17989198261371971133
20279233 1 18186519908085131986
20281475 54 17918272039340522246
20325693 3 16950286191365114815
20645477 56 17749106669317133557
20645477 70 18271520901771846878
21864079 5 13045946772279579822
2255824 54 17916584392387911248
22646028 28 17632855338955545910
23402539 116 15068619401070940702
23557571 272 17676491695681913929
23559900 14 17967809406554530146
474 4 17415543570686962576
4921388 177 17167868568865916475
5161694 15 18187921725312529740
5281201 14 18113904849099316540
573450 72 16415479324530474606
6049 1 18114187440361419836
74978 22 17418084472864118913
7615 1 17132113554363117248
77492 1 17203612596552033504
9709674 26 18334292067608731342

> <PUBCHEM_SHAPE_MULTIPOLES>
364.56
8.73
1.77
1.51
6.63
0.35
-0.18
0.75
0.33
0.86
-0.02
-1.92
0.01
0.91

> <PUBCHEM_SHAPE_SELFOVERLAP>
763.592

> <PUBCHEM_SHAPE_VOLUME>
211.4

> <PUBCHEM_COORDINATE_TYPE>
2
5
10

$$$$
