111516
  -OEChem-11232108533D

 32 32  0     0  0  0  0  0  0999 V2000
    3.0316    0.3302   -0.5531 O   0  0  0  0  0  0  0  0  0  0  0  0
    4.6851    1.4189    0.6473 O   0  0  0  0  0  0  0  0  0  0  0  0
   -2.1235    0.0786   -0.1526 C   0  0  0  0  0  0  0  0  0  0  0  0
   -3.4854    0.6945   -0.2802 C   0  0  0  0  0  0  0  0  0  0  0  0
   -1.2954    0.0311   -1.4118 C   0  0  0  0  0  0  0  0  0  0  0  0
    0.5158   -1.0752   -0.0710 C   0  0  0  0  0  0  0  0  0  0  0  0
   -0.3122   -1.0277    1.1881 C   0  0  0  0  0  0  0  0  0  0  0  0
   -1.6669   -0.4036    1.0157 C   0  0  0  0  0  0  0  0  0  0  0  0
    0.0592   -0.5930   -1.2392 C   0  0  0  0  0  0  0  0  0  0  0  0
    1.8774   -1.6921    0.0564 C   0  0  0  0  0  0  0  0  0  0  0  0
   -4.5618   -0.3299    0.0624 C   0  0  0  0  0  0  0  0  0  0  0  0
   -3.6051    1.9297    0.6076 C   0  0  0  0  0  0  0  0  0  0  0  0
    2.9333   -0.6719    0.4504 C   0  0  0  0  0  0  0  0  0  0  0  0
    3.9480    1.3105   -0.3201 C   0  0  0  0  0  0  0  0  0  0  0  0
   -3.6454    1.0129   -1.3184 H   0  0  0  0  0  0  0  0  0  0  0  0
   -1.1572    1.0515   -1.7887 H   0  0  0  0  0  0  0  0  0  0  0  0
   -1.8389   -0.5354   -2.1775 H   0  0  0  0  0  0  0  0  0  0  0  0
    0.2291   -0.4630    1.9562 H   0  0  0  0  0  0  0  0  0  0  0  0
   -0.4518   -2.0481    1.5647 H   0  0  0  0  0  0  0  0  0  0  0  0
   -2.2829   -0.3572    1.9097 H   0  0  0  0  0  0  0  0  0  0  0  0
    0.6848   -0.6450   -2.1267 H   0  0  0  0  0  0  0  0  0  0  0  0
    2.1604   -2.1424   -0.9043 H   0  0  0  0  0  0  0  0  0  0  0  0
    1.8540   -2.5117    0.7841 H   0  0  0  0  0  0  0  0  0  0  0  0
   -4.4615   -1.2312   -0.5531 H   0  0  0  0  0  0  0  0  0  0  0  0
   -5.5570    0.0879   -0.1278 H   0  0  0  0  0  0  0  0  0  0  0  0
   -4.5338   -0.6330    1.1148 H   0  0  0  0  0  0  0  0  0  0  0  0
   -2.8154    2.6555    0.3829 H   0  0  0  0  0  0  0  0  0  0  0  0
   -3.5482    1.6862    1.6742 H   0  0  0  0  0  0  0  0  0  0  0  0
   -4.5669    2.4270    0.4386 H   0  0  0  0  0  0  0  0  0  0  0  0
    3.9011   -1.1778    0.5500 H   0  0  0  0  0  0  0  0  0  0  0  0
    2.6811   -0.2081    1.4118 H   0  0  0  0  0  0  0  0  0  0  0  0
    3.9246    2.0177   -1.1633 H   0  0  0  0  0  0  0  0  0  0  0  0
  1 13  1  0  0  0  0
  1 14  1  0  0  0  0
  2 14  2  0  0  0  0
  3  4  1  0  0  0  0
  3  5  1  0  0  0  0
  3  8  2  0  0  0  0
  4 11  1  0  0  0  0
  4 12  1  0  0  0  0
  4 15  1  0  0  0  0
  5  9  1  0  0  0  0
  5 16  1  0  0  0  0
  5 17  1  0  0  0  0
  6  7  1  0  0  0  0
  6  9  2  0  0  0  0
  6 10  1  0  0  0  0
  7  8  1  0  0  0  0
  7 18  1  0  0  0  0
  7 19  1  0  0  0  0
  8 20  1  0  0  0  0
  9 21  1  0  0  0  0
 10 13  1  0  0  0  0
 10 22  1  0  0  0  0
 10 23  1  0  0  0  0
 11 24  1  0  0  0  0
 11 25  1  0  0  0  0
 11 26  1  0  0  0  0
 12 27  1  0  0  0  0
 12 28  1  0  0  0  0
 12 29  1  0  0  0  0
 13 30  1  0  0  0  0
 13 31  1  0  0  0  0
 14 32  1  0  0  0  0
M  END
> <PUBCHEM_COMPOUND_CID>
111516

> <PUBCHEM_CONFORMER_RMSD>
0.6

> <PUBCHEM_CONFORMER_DIVERSEORDER>
1
46
2
34
14
31
18
20
38
15
37
33
40
7
27
39
16
10
23
25
8
45
29
36
26
11
42
28
5
3
43
9
17
24
30
44
6
4
32
35
22
12
13
21
19
41

> <PUBCHEM_MMFF94_PARTIAL_CHARGES>
15
1 -0.43
10 0.14
13 0.28
14 0.66
2 -0.57
20 0.15
21 0.15
3 -0.28
32 0.06
4 0.14
5 0.28
6 -0.28
7 0.28
8 -0.29
9 -0.29

> <PUBCHEM_EFFECTIVE_ROTOR_COUNT>
5.4

> <PUBCHEM_PHARMACOPHORE_FEATURES>
3
1 2 acceptor
3 4 11 12 hydrophobe
6 3 5 6 7 8 9 rings

> <PUBCHEM_HEAVY_ATOM_COUNT>
14

> <PUBCHEM_ATOM_DEF_STEREO_COUNT>
0

> <PUBCHEM_ATOM_UDEF_STEREO_COUNT>
0

> <PUBCHEM_BOND_DEF_STEREO_COUNT>
0

> <PUBCHEM_BOND_UDEF_STEREO_COUNT>
0

> <PUBCHEM_ISOTOPIC_ATOM_COUNT>
0

> <PUBCHEM_COMPONENT_COUNT>
1

> <PUBCHEM_CACTVS_TAUTO_COUNT>
1

> <PUBCHEM_CONFORMER_ID>
0001B39C00000001

> <PUBCHEM_MMFF94_ENERGY>
10.2433

> <PUBCHEM_FEATURE_SELFOVERLAP>
15.223

> <PUBCHEM_SHAPE_FINGERPRINT>
10465860 250 13479133497388293111
10465860 71 15052010182273514922
11132069 177 17240203231249409799
11206711 2 14979395041635971267
11401426 45 16588020213206582047
11543360 7 18060134336644135063
12006461 19 8862650296517222033
122479 349 18334016133413840210
12251169 10 16660642985974507214
124424 183 12901549053070947583
12633257 1 16950558935063962832
13675066 3 13262395578834619790
14123255 52 18272930557367131020
14289901 80 18341048523954717883
14993402 34 16702020880860228937
15342168 16 18261115231137518092
15775835 57 18202280325232915556
16945 1 16081949039745687671
17846911 113 17603301565875566476
18186145 218 18115592530448978775
19026448 5 18270676464041098127
20281475 54 9223218650872402275
20528008 55 17676207965800127351
20645476 183 17418085537915873166
20871999 31 15912753020239355492
21618674 25 18259984881291050658
22646028 28 7997974578763349960
22713019 99 11959730477486831732
22854114 59 18039871440839348078
22926399 37 17917714620977917816
22959321 60 18259993685894749907
23402539 116 17095795624957932735
23403322 49 10807396099890227692
23500284 214 18260550047753428312
23532345 42 16660371376237215887
23557571 272 18042992997321960851
23559900 14 16805896095629312930
26918003 58 12179839520002539276
4072396 5 14923937930199724371
449060 50 18407762534198971751
474 4 18333453161658840180
633830 44 18199750245866637063
90316 7 15791728620018593230

> <PUBCHEM_SHAPE_MULTIPOLES>
276.37
8.42
1.61
1.14
2.32
0.39
-0.13
4.59
1.03
0.69
0.29
-0.21
-0.08
-0.11

> <PUBCHEM_SHAPE_SELFOVERLAP>
547.139

> <PUBCHEM_SHAPE_VOLUME>
164

> <PUBCHEM_COORDINATE_TYPE>
2
5
10

$$$$
