11196546
  -OEChem-11232108573D

 36 38  0     1  0  0  0  0  0999 V2000
    0.9559    0.4230    0.2246 O   0  0  0  0  0  0  0  0  0  0  0  0
    5.2965    2.2992    0.4732 O   0  0  0  0  0  0  0  0  0  0  0  0
   -5.2854    0.6932   -0.2396 O   0  0  0  0  0  0  0  0  0  0  0  0
   -4.3785   -0.4903    2.1055 O   0  0  0  0  0  0  0  0  0  0  0  0
    0.1616   -0.7733    0.2837 C   0  0  2  0  0  0  0  0  0  0  0  0
    0.5695   -1.7748   -0.8001 C   0  0  0  0  0  0  0  0  0  0  0  0
    2.0135   -2.1999   -0.5654 C   0  0  0  0  0  0  0  0  0  0  0  0
    2.8741   -1.0009   -0.2871 C   0  0  0  0  0  0  0  0  0  0  0  0
   -1.2950   -0.3824    0.1470 C   0  0  0  0  0  0  0  0  0  0  0  0
    2.3064    0.2211    0.0966 C   0  0  0  0  0  0  0  0  0  0  0  0
    4.2680   -1.1050   -0.3836 C   0  0  0  0  0  0  0  0  0  0  0  0
   -2.1805   -0.6169    1.1982 C   0  0  0  0  0  0  0  0  0  0  0  0
   -1.7493    0.2112   -1.0302 C   0  0  0  0  0  0  0  0  0  0  0  0
    3.1197    1.3308    0.3399 C   0  0  0  0  0  0  0  0  0  0  0  0
    5.0791    0.0011   -0.1280 C   0  0  0  0  0  0  0  0  0  0  0  0
    4.5050    1.2192    0.2294 C   0  0  0  0  0  0  0  0  0  0  0  0
   -3.5225   -0.2573    1.0720 C   0  0  0  0  0  0  0  0  0  0  0  0
   -3.0910    0.5707   -1.1564 C   0  0  0  0  0  0  0  0  0  0  0  0
   -3.9776    0.3366   -0.1053 C   0  0  0  0  0  0  0  0  0  0  0  0
   -5.6696    1.2948   -1.4744 C   0  0  0  0  0  0  0  0  0  0  0  0
    0.3182   -1.2227    1.2746 H   0  0  0  0  0  0  0  0  0  0  0  0
    0.5039   -1.3168   -1.7958 H   0  0  0  0  0  0  0  0  0  0  0  0
   -0.0839   -2.6550   -0.8004 H   0  0  0  0  0  0  0  0  0  0  0  0
    2.3801   -2.7404   -1.4456 H   0  0  0  0  0  0  0  0  0  0  0  0
    2.0675   -2.8776    0.2952 H   0  0  0  0  0  0  0  0  0  0  0  0
    4.7292   -2.0487   -0.6644 H   0  0  0  0  0  0  0  0  0  0  0  0
   -1.8346   -1.0793    2.1194 H   0  0  0  0  0  0  0  0  0  0  0  0
   -1.0713    0.4120   -1.8553 H   0  0  0  0  0  0  0  0  0  0  0  0
    2.6744    2.2819    0.6221 H   0  0  0  0  0  0  0  0  0  0  0  0
    6.1577   -0.1004   -0.2137 H   0  0  0  0  0  0  0  0  0  0  0  0
   -3.3730    1.0297   -2.0977 H   0  0  0  0  0  0  0  0  0  0  0  0
    6.2266    2.0425    0.3506 H   0  0  0  0  0  0  0  0  0  0  0  0
   -5.2632   -0.1796    1.8458 H   0  0  0  0  0  0  0  0  0  0  0  0
   -5.5370    0.6074   -2.3168 H   0  0  0  0  0  0  0  0  0  0  0  0
   -5.1606    2.2517   -1.6328 H   0  0  0  0  0  0  0  0  0  0  0  0
   -6.7408    1.5123   -1.4074 H   0  0  0  0  0  0  0  0  0  0  0  0
  1  5  1  0  0  0  0
  1 10  1  0  0  0  0
  2 16  1  0  0  0  0
  2 32  1  0  0  0  0
  3 19  1  0  0  0  0
  3 20  1  0  0  0  0
  4 17  1  0  0  0  0
  4 33  1  0  0  0  0
  5  6  1  0  0  0  0
  5  9  1  0  0  0  0
  5 21  1  0  0  0  0
  6  7  1  0  0  0  0
  6 22  1  0  0  0  0
  6 23  1  0  0  0  0
  7  8  1  0  0  0  0
  7 24  1  0  0  0  0
  7 25  1  0  0  0  0
  8 10  2  0  0  0  0
  8 11  1  0  0  0  0
  9 12  2  0  0  0  0
  9 13  1  0  0  0  0
 10 14  1  0  0  0  0
 11 15  2  0  0  0  0
 11 26  1  0  0  0  0
 12 17  1  0  0  0  0
 12 27  1  0  0  0  0
 13 18  2  0  0  0  0
 13 28  1  0  0  0  0
 14 16  2  0  0  0  0
 14 29  1  0  0  0  0
 15 16  1  0  0  0  0
 15 30  1  0  0  0  0
 17 19  2  0  0  0  0
 18 19  1  0  0  0  0
 18 31  1  0  0  0  0
 20 34  1  0  0  0  0
 20 35  1  0  0  0  0
 20 36  1  0  0  0  0
M  END
> <PUBCHEM_COMPOUND_CID>
11196546

> <PUBCHEM_CONFORMER_RMSD>
0.6

> <PUBCHEM_CONFORMER_DIVERSEORDER>
16
15
8
2
5
13
4
17
11
14
1
18
23
3
22
19
24
12
21
7
10
20
9
6

> <PUBCHEM_MMFF94_PARTIAL_CHARGES>
27
1 -0.36
10 0.08
11 -0.15
12 -0.15
13 -0.15
14 -0.15
15 -0.15
16 0.08
17 0.08
18 -0.15
19 0.08
2 -0.53
20 0.28
26 0.15
27 0.15
28 0.15
29 0.15
3 -0.36
30 0.15
31 0.15
32 0.45
33 0.45
4 -0.53
5 0.42
7 0.14
8 -0.14
9 -0.14

> <PUBCHEM_EFFECTIVE_ROTOR_COUNT>
2.8

> <PUBCHEM_PHARMACOPHORE_FEATURES>
7
1 1 acceptor
1 2 donor
1 3 acceptor
1 4 donor
6 1 5 6 7 8 10 rings
6 8 10 11 14 15 16 rings
6 9 12 13 17 18 19 rings

> <PUBCHEM_HEAVY_ATOM_COUNT>
20

> <PUBCHEM_ATOM_DEF_STEREO_COUNT>
0

> <PUBCHEM_ATOM_UDEF_STEREO_COUNT>
1

> <PUBCHEM_BOND_DEF_STEREO_COUNT>
0

> <PUBCHEM_BOND_UDEF_STEREO_COUNT>
0

> <PUBCHEM_ISOTOPIC_ATOM_COUNT>
0

> <PUBCHEM_COMPONENT_COUNT>
1

> <PUBCHEM_CACTVS_TAUTO_COUNT>
8

> <PUBCHEM_CONFORMER_ID>
00AAD88200000010

> <PUBCHEM_MMFF94_ENERGY>
64.9218

> <PUBCHEM_FEATURE_SELFOVERLAP>
35.551

> <PUBCHEM_SHAPE_FINGERPRINT>
10 15 18041840731227930264
10014705 185 18410290341522334583
10319926 262 17458338633366222482
10411042 1 17765717919587456118
10912923 1 17203329992036074691
11128504 68 16487251092784546416
11471102 20 18343865502804283686
12236239 1 17060617772349608303
12403259 118 17822571732501191492
12403259 415 18261119573011778778
12633257 1 16370724837529993700
12730499 353 18409452461895898151
13214271 11 18040997358585579343
13402501 40 18260258633975157397
13533116 47 17387120988370085499
13583140 156 16951384663879694172
13631057 29 17772740800880095831
13675066 3 18113904878990033394
13760787 5 17917999355855846482
14251757 5 16700313438535369967
14386348 63 18113904831792800967
14528608 73 18131063844372979709
14848178 96 17773588528618895048
15188451 53 15936975270406037331
15219456 202 18334017180969388835
15375358 24 18260266330714144239
16079462 125 18040989627359707621
16752209 62 15123501485411652471
16988056 13 13526779442023992561
17138139 8 16771510042123194735
17834072 33 17846491552329161751
17980427 23 16443071629318272007
1813 80 17128471804929091038
18186145 218 18202288017751451326
200 152 17846213328816650171
20279233 1 18187371999795806771
204376 136 18343586273921694454
20612939 158 18130788941165652310
20645477 56 18260266364794307878
20645477 70 18271241608432885150
21033648 29 18261383473040635400
21033650 10 14979138949889619194
21065201 7 16877948191671031402
21424621 283 17678734532870219221
22854114 59 18408608071356802290
231179 274 18407758136373993634
23366157 5 16054373223722840079
23402539 116 17530682117449303703
23402655 69 18060134336348508526
23557571 272 17676502630927352659
23559900 14 17458914712644998002
2916195 48 18187359956427907993
29717793 49 17060340678081323276
3004659 81 14979690845077223404
335352 9 18343582946176316414
4072396 5 18339065009573779730
474 4 18202565098755033026
5104073 3 17895194355430578025
542803 24 16988849379675963776
543368 44 17131547353130190888
602551 16 16805896185485613938
633830 44 17631752494438578798
8272917 22 18130791096901975854

> <PUBCHEM_SHAPE_MULTIPOLES>
388.11
12.57
1.72
1.24
3.14
0.01
0.24
-5.79
-0.52
-2.1
-0.2
1.92
0.06
1.69

> <PUBCHEM_SHAPE_SELFOVERLAP>
847.996

> <PUBCHEM_SHAPE_VOLUME>
211

> <PUBCHEM_COORDINATE_TYPE>
2
5
10

$$$$
