111989
  -OEChem-11232109253D

 30 29  0     0  0  0  0  0  0999 V2000
   -4.6361    1.1843    0.5092 O   0  0  0  0  0  0  0  0  0  0  0  0
    4.1549   -0.1546   -0.2806 C   0  0  0  0  0  0  0  0  0  0  0  0
    2.7447    0.2883    0.1213 C   0  0  0  0  0  0  0  0  0  0  0  0
    5.1549    0.0891    0.8502 C   0  0  0  0  0  0  0  0  0  0  0  0
    1.7019    0.0352   -0.9721 C   0  0  0  0  0  0  0  0  0  0  0  0
    6.5513   -0.3759    0.4684 C   0  0  0  0  0  0  0  0  0  0  0  0
    0.3335    0.5329   -0.6032 C   0  0  0  0  0  0  0  0  0  0  0  0
   -0.7459   -0.2587   -0.5150 C   0  0  0  0  0  0  0  0  0  0  0  0
   -2.0595    0.2313   -0.1609 C   0  0  0  0  0  0  0  0  0  0  0  0
   -3.1308   -0.5687   -0.0757 C   0  0  0  0  0  0  0  0  0  0  0  0
   -4.4625   -0.0132    0.2941 C   0  0  0  0  0  0  0  0  0  0  0  0
   -5.6065   -0.9901    0.3643 C   0  0  0  0  0  0  0  0  0  0  0  0
    4.4697    0.3919   -1.1778 H   0  0  0  0  0  0  0  0  0  0  0  0
    4.1426   -1.2206   -0.5382 H   0  0  0  0  0  0  0  0  0  0  0  0
    2.4442   -0.2410    1.0347 H   0  0  0  0  0  0  0  0  0  0  0  0
    2.7621    1.3576    0.3688 H   0  0  0  0  0  0  0  0  0  0  0  0
    5.1850    1.1568    1.0969 H   0  0  0  0  0  0  0  0  0  0  0  0
    4.8343   -0.4438    1.7529 H   0  0  0  0  0  0  0  0  0  0  0  0
    2.0112    0.5459   -1.8923 H   0  0  0  0  0  0  0  0  0  0  0  0
    1.6751   -1.0368   -1.2037 H   0  0  0  0  0  0  0  0  0  0  0  0
    6.5612   -1.4481    0.2480 H   0  0  0  0  0  0  0  0  0  0  0  0
    7.2502   -0.1915    1.2903 H   0  0  0  0  0  0  0  0  0  0  0  0
    6.9153    0.1599   -0.4141 H   0  0  0  0  0  0  0  0  0  0  0  0
    0.2416    1.5997   -0.4113 H   0  0  0  0  0  0  0  0  0  0  0  0
   -0.6472   -1.3231   -0.7129 H   0  0  0  0  0  0  0  0  0  0  0  0
   -2.1478    1.2961    0.0393 H   0  0  0  0  0  0  0  0  0  0  0  0
   -3.0664   -1.6339   -0.2717 H   0  0  0  0  0  0  0  0  0  0  0  0
   -6.1962   -0.9228   -0.5533 H   0  0  0  0  0  0  0  0  0  0  0  0
   -6.2322   -0.7482    1.2281 H   0  0  0  0  0  0  0  0  0  0  0  0
   -5.2459   -2.0147    0.4892 H   0  0  0  0  0  0  0  0  0  0  0  0
  1 11  2  0  0  0  0
  2  3  1  0  0  0  0
  2  4  1  0  0  0  0
  2 13  1  0  0  0  0
  2 14  1  0  0  0  0
  3  5  1  0  0  0  0
  3 15  1  0  0  0  0
  3 16  1  0  0  0  0
  4  6  1  0  0  0  0
  4 17  1  0  0  0  0
  4 18  1  0  0  0  0
  5  7  1  0  0  0  0
  5 19  1  0  0  0  0
  5 20  1  0  0  0  0
  6 21  1  0  0  0  0
  6 22  1  0  0  0  0
  6 23  1  0  0  0  0
  7  8  2  3  0  0  0
  7 24  1  0  0  0  0
  8  9  1  0  0  0  0
  8 25  1  0  0  0  0
  9 10  2  3  0  0  0
  9 26  1  0  0  0  0
 10 11  1  0  0  0  0
 10 27  1  0  0  0  0
 11 12  1  0  0  0  0
 12 28  1  0  0  0  0
 12 29  1  0  0  0  0
 12 30  1  0  0  0  0
M  END
> <PUBCHEM_COMPOUND_CID>
111989

> <PUBCHEM_CONFORMER_RMSD>
0.6

> <PUBCHEM_CONFORMER_DIVERSEORDER>
1
182
183
72
134
109
152
151
10
176
131
123
192
22
194
135
29
110
11
137
193
50
140
76
55
190
77
165
34
119
127
67
20
154
47
174
118
53
172
175
59
40
173
26
65
155
126
56
143
49
41
70
184
58
124
144
93
66
104
170
19
198
90
44
187
5
191
3
178
167
6
61
99
108
113
181
107
63
116
189
96
168
80
180
163
158
146
120
160
159
85
32
129
82
162
138
12
122
156
69
52
97
25
98
16
17
169
68
103
9
71
153
88
4
157
91
196
23
81
2
101
139
186
111
185
188
149
51
27
197
121
130
37
115
171
48
75
18
179
114
84
30
141
46
7
150
142
148
117
100
73
31
36
147
24
42
8
33
57
45
78
21
136
39
92
177
125
87
94
14
132
161
106
164
60
195
62
199
79
38
54
43
89
166
112
13
15
133
95
128
74
102
105
35
28
83
86
145
64

> <PUBCHEM_MMFF94_PARTIAL_CHARGES>
12
1 -0.57
10 -0.14
11 0.49
12 0.06
24 0.15
25 0.15
26 0.15
27 0.15
5 0.14
7 -0.29
8 -0.15
9 -0.15

> <PUBCHEM_EFFECTIVE_ROTOR_COUNT>
6

> <PUBCHEM_PHARMACOPHORE_FEATURES>
3
1 1 acceptor
1 6 hydrophobe
5 2 3 4 5 7 hydrophobe

> <PUBCHEM_HEAVY_ATOM_COUNT>
12

> <PUBCHEM_ATOM_DEF_STEREO_COUNT>
0

> <PUBCHEM_ATOM_UDEF_STEREO_COUNT>
0

> <PUBCHEM_BOND_DEF_STEREO_COUNT>
0

> <PUBCHEM_BOND_UDEF_STEREO_COUNT>
2

> <PUBCHEM_ISOTOPIC_ATOM_COUNT>
0

> <PUBCHEM_COMPONENT_COUNT>
1

> <PUBCHEM_CACTVS_TAUTO_COUNT>
2

> <PUBCHEM_CONFORMER_ID>
0001B57500000001

> <PUBCHEM_MMFF94_ENERGY>
5.1614

> <PUBCHEM_FEATURE_SELFOVERLAP>
15.223

> <PUBCHEM_SHAPE_FINGERPRINT>
100836 57 14836405856625164066
10354089 29 17203609298665938258
114248 4 11386370339816110476
12091667 2 17775281668792095813
12714333 28 11095884869621411862
13964095 4 13190330262862498071
14123238 8 17603305959574349710
1420 363 14923947838541615712
14251718 22 8286197253922538584
14251731 8 13623532367758780617
14350574 20 13262403262583834076
14455015 7 15213022634896046992
15048467 5 13038913222403682195
15242439 84 12685091510156184151
15501527 16 16128372692211951574
15501527 24 9871745802107752358
17834072 33 16225771830695292830
17834072 8 12973601153618837651
17834076 25 13686299079920300943
187816 3 10809342230754073732
19489759 90 18411699881401708113
20281389 69 15841550769555662682
20605781 2 14476961198984989886
20645477 56 16559028285524394692
20645477 70 8285937782549205800
20767249 13 17603866710552014174
20767249 213 15123505926249450746
21130983 4 14979959194085341722
23402539 116 17989199352430847069
23402655 69 10231766565165050519
23559900 14 12901555679540672214
23590187 198 17675925412997609099
2767999 5 14549014377764941258
351380 3 17022615377981850018
42 15 18186240627762752764
42788 4 18131913762840492120
449060 50 16487259871729348189

> <PUBCHEM_SHAPE_MULTIPOLES>
241.09
15.84
0.88
0.85
6.84
0.01
-0.09
5.6
-1.26
0.05
0.04
-0.44
-0.02
-0.55

> <PUBCHEM_SHAPE_SELFOVERLAP>
444.594

> <PUBCHEM_SHAPE_VOLUME>
152.1

> <PUBCHEM_COORDINATE_TYPE>
2
5
10

$$$$
