112002
  -OEChem-11232109013D

 29 28  0     1  0  0  0  0  0999 V2000
    1.4701    0.0914   -0.4662 O   0  0  0  0  0  0  0  0  0  0  0  0
   -1.2596    0.2524    0.1228 O   0  0  0  0  0  0  0  0  0  0  0  0
    3.4871    0.8275    0.3786 O   0  0  0  0  0  0  0  0  0  0  0  0
   -3.2228    0.7749   -0.9710 O   0  0  0  0  0  0  0  0  0  0  0  0
    0.8693    1.3421   -0.1337 C   0  0  1  0  0  0  0  0  0  0  0  0
   -0.5880    1.3056   -0.5761 C   0  0  0  0  0  0  0  0  0  0  0  0
    0.9903    1.5627    1.3665 C   0  0  0  0  0  0  0  0  0  0  0  0
    2.7959   -0.0312   -0.1518 C   0  0  0  0  0  0  0  0  0  0  0  0
    3.2755   -1.4030   -0.5645 C   0  0  0  0  0  0  0  0  0  0  0  0
   -3.1398   -1.0444    0.6394 C   0  0  0  0  0  0  0  0  0  0  0  0
   -2.5841    0.1000   -0.1754 C   0  0  0  0  0  0  0  0  0  0  0  0
    2.5252   -2.5110    0.1537 C   0  0  0  0  0  0  0  0  0  0  0  0
   -4.6192   -1.2669    0.3778 C   0  0  0  0  0  0  0  0  0  0  0  0
    1.3769    2.1461   -0.6810 H   0  0  0  0  0  0  0  0  0  0  0  0
   -1.0789    2.2623   -0.3642 H   0  0  0  0  0  0  0  0  0  0  0  0
   -0.6406    1.0965   -1.6512 H   0  0  0  0  0  0  0  0  0  0  0  0
    1.9699    1.9476    1.6611 H   0  0  0  0  0  0  0  0  0  0  0  0
    0.2667    2.3119    1.7075 H   0  0  0  0  0  0  0  0  0  0  0  0
    0.8185    0.6382    1.9293 H   0  0  0  0  0  0  0  0  0  0  0  0
    3.1770   -1.4986   -1.6510 H   0  0  0  0  0  0  0  0  0  0  0  0
    4.3431   -1.4714   -0.3275 H   0  0  0  0  0  0  0  0  0  0  0  0
   -2.5850   -1.9533    0.3834 H   0  0  0  0  0  0  0  0  0  0  0  0
   -2.9898   -0.8192    1.7006 H   0  0  0  0  0  0  0  0  0  0  0  0
    1.4656   -2.5184   -0.1221 H   0  0  0  0  0  0  0  0  0  0  0  0
    2.9487   -3.4865   -0.1042 H   0  0  0  0  0  0  0  0  0  0  0  0
    2.5859   -2.3843    1.2396 H   0  0  0  0  0  0  0  0  0  0  0  0
   -4.8014   -1.5004   -0.6765 H   0  0  0  0  0  0  0  0  0  0  0  0
   -4.9922   -2.0994    0.9822 H   0  0  0  0  0  0  0  0  0  0  0  0
   -5.2014   -0.3739    0.6283 H   0  0  0  0  0  0  0  0  0  0  0  0
  1  5  1  0  0  0  0
  1  8  1  0  0  0  0
  2  6  1  0  0  0  0
  2 11  1  0  0  0  0
  3  8  2  0  0  0  0
  4 11  2  0  0  0  0
  5  6  1  0  0  0  0
  5  7  1  0  0  0  0
  5 14  1  0  0  0  0
  6 15  1  0  0  0  0
  6 16  1  0  0  0  0
  7 17  1  0  0  0  0
  7 18  1  0  0  0  0
  7 19  1  0  0  0  0
  8  9  1  0  0  0  0
  9 12  1  0  0  0  0
  9 20  1  0  0  0  0
  9 21  1  0  0  0  0
 10 11  1  0  0  0  0
 10 13  1  0  0  0  0
 10 22  1  0  0  0  0
 10 23  1  0  0  0  0
 12 24  1  0  0  0  0
 12 25  1  0  0  0  0
 12 26  1  0  0  0  0
 13 27  1  0  0  0  0
 13 28  1  0  0  0  0
 13 29  1  0  0  0  0
M  END
> <PUBCHEM_COMPOUND_CID>
112002

> <PUBCHEM_CONFORMER_RMSD>
0.8

> <PUBCHEM_CONFORMER_DIVERSEORDER>
4
186
160
190
64
197
70
105
115
106
39
98
172
93
2
139
150
58
41
162
191
86
77
66
167
56
50
180
127
47
21
182
59
6
196
118
68
198
36
123
215
1
95
121
9
213
188
69
35
13
216
165
22
176
14
209
43
92
131
157
40
8
155
202
144
7
3
97
133
212
163
100
117
207
141
193
10
122
154
169
128
5
206
137
34
80
88
29
91
166
179
30
83
62
89
109
146
204
178
32
201
99
208
138
185
87
203
184
76
114
60
82
96
120
195
85
147
61
107
27
11
119
134
15
101
177
90
210
158
42
108
132
143
111
74
199
55
168
164
170
18
129
116
200
48
136
23
113
110
44
156
79
152
151
126
125
192
161
205
63
45
174
20
81
130
17
37
148
104
38
49
84
24
67
33
57
112
103
94
194
19
25
52
214
72
102
12
149
140
124
26
54
153
211
51
135
28
145
175
65
189
171
31
53
75
173
16
159
183
187
73
142
71
78
181
46

> <PUBCHEM_MMFF94_PARTIAL_CHARGES>
10
1 -0.43
10 0.06
11 0.66
2 -0.43
3 -0.57
4 -0.57
5 0.28
6 0.28
8 0.66
9 0.06

> <PUBCHEM_EFFECTIVE_ROTOR_COUNT>
7

> <PUBCHEM_PHARMACOPHORE_FEATURES>
4
1 12 hydrophobe
1 13 hydrophobe
1 3 acceptor
1 4 acceptor

> <PUBCHEM_HEAVY_ATOM_COUNT>
13

> <PUBCHEM_ATOM_DEF_STEREO_COUNT>
0

> <PUBCHEM_ATOM_UDEF_STEREO_COUNT>
1

> <PUBCHEM_BOND_DEF_STEREO_COUNT>
0

> <PUBCHEM_BOND_UDEF_STEREO_COUNT>
0

> <PUBCHEM_ISOTOPIC_ATOM_COUNT>
0

> <PUBCHEM_COMPONENT_COUNT>
1

> <PUBCHEM_CACTVS_TAUTO_COUNT>
1

> <PUBCHEM_CONFORMER_ID>
0001B58200000004

> <PUBCHEM_MMFF94_ENERGY>
13.4236

> <PUBCHEM_FEATURE_SELFOVERLAP>
20.297

> <PUBCHEM_SHAPE_FINGERPRINT>
12006461 19 18336834177431607211
12616999 72 18114755914117407886
12824470 246 18339366249219593563
12932764 1 17774718766110097781
13296908 3 18408604742698982845
13705890 14 18113901554795986156
14251705 54 18196093235669969862
14251710 61 18340776927086361294
14251717 144 18411420643591690827
14251731 5 18336832991604369747
14251745 187 18115873064712106387
14252887 29 18335987557409079985
14350558 41 18334301980287430686
15375462 189 18131910477021790102
15477762 27 18334861657428397076
17834074 16 18335423495381180891
19107657 46 18409731729222515046
20201158 50 18408604747220965778
20279233 1 18334572442946927733
20281407 28 18408889511868338028
20281475 54 18336836307287006116
20645477 70 18201992197077492423
20871998 22 18408605859374915293
20871999 31 17676211255924210181
22169311 21 18335412444066013229
22485316 2 18411699902639102631
23380061 451 18202007637474390968
23402539 116 17022892454890969924
23500284 5 18126853694233559410
23557571 272 17530676619495649836
33824 294 18339078293422257890
449060 23 17821731628344971877
581208 293 18411134766531503382
59345606 37 18410857680689849795
7364860 26 17972605656125971837
94968 8 18410017641095478214

> <PUBCHEM_SHAPE_MULTIPOLES>
244.06
7.64
2.09
0.93
5.24
0.88
0.14
4.07
0.11
-1.26
0.26
0.08
-0.26
0.84

> <PUBCHEM_SHAPE_SELFOVERLAP>
461.03

> <PUBCHEM_SHAPE_VOLUME>
150.8

> <PUBCHEM_COORDINATE_TYPE>
2
5
10

$$$$
