11219061
  -OEChem-11232109463D

 42 42  0     1  0  0  0  0  0999 V2000
    0.1016   -0.6893   -0.0406 O   0  0  0  0  0  0  0  0  0  0  0  0
    1.1987    0.2899   -1.8172 O   0  0  0  0  0  0  0  0  0  0  0  0
    6.0483    0.3562   -0.1002 O   0  0  0  0  0  0  0  0  0  0  0  0
    4.8367   -0.6937    1.5097 O   0  0  0  0  0  0  0  0  0  0  0  0
   -2.2557   -0.6482    0.4965 C   0  0  1  0  0  0  0  0  0  0  0  0
   -1.1190   -0.0062   -0.3158 C   0  0  1  0  0  0  0  0  0  0  0  0
   -3.5593    0.1438    0.3310 C   0  0  0  0  0  0  0  0  0  0  0  0
   -2.2496    2.2588   -0.1392 C   0  0  1  0  0  0  0  0  0  0  0  0
   -0.9451    1.4741    0.0314 C   0  0  0  0  0  0  0  0  0  0  0  0
   -3.3762    1.6190    0.6807 C   0  0  0  0  0  0  0  0  0  0  0  0
   -2.4693   -2.1111    0.0984 C   0  0  0  0  0  0  0  0  0  0  0  0
   -2.0561    3.7210    0.2582 C   0  0  0  0  0  0  0  0  0  0  0  0
   -3.5158   -2.7612    0.9984 C   0  0  0  0  0  0  0  0  0  0  0  0
   -2.8809   -2.2103   -1.3674 C   0  0  0  0  0  0  0  0  0  0  0  0
    1.2042   -0.2296   -0.7100 C   0  0  0  0  0  0  0  0  0  0  0  0
    2.4327   -0.4706    0.1406 C   0  0  0  0  0  0  0  0  0  0  0  0
    3.7087    0.0854   -0.4801 C   0  0  0  0  0  0  0  0  0  0  0  0
    4.8962   -0.1279    0.4257 C   0  0  0  0  0  0  0  0  0  0  0  0
   -1.9645   -0.6289    1.5567 H   0  0  0  0  0  0  0  0  0  0  0  0
   -1.3272   -0.0670   -1.3892 H   0  0  0  0  0  0  0  0  0  0  0  0
   -4.3488   -0.2513    0.9782 H   0  0  0  0  0  0  0  0  0  0  0  0
   -3.9320    0.1048   -0.6970 H   0  0  0  0  0  0  0  0  0  0  0  0
   -2.5339    2.2331   -1.1997 H   0  0  0  0  0  0  0  0  0  0  0  0
   -0.1737    1.9433   -0.5894 H   0  0  0  0  0  0  0  0  0  0  0  0
   -0.5816    1.5640    1.0645 H   0  0  0  0  0  0  0  0  0  0  0  0
   -4.3175    2.1530    0.5021 H   0  0  0  0  0  0  0  0  0  0  0  0
   -3.1582    1.7116    1.7524 H   0  0  0  0  0  0  0  0  0  0  0  0
   -1.5303   -2.6624    0.2330 H   0  0  0  0  0  0  0  0  0  0  0  0
   -1.2743    4.1887   -0.3494 H   0  0  0  0  0  0  0  0  0  0  0  0
   -2.9804    4.2890    0.1094 H   0  0  0  0  0  0  0  0  0  0  0  0
   -1.7676    3.8133    1.3108 H   0  0  0  0  0  0  0  0  0  0  0  0
   -3.5209   -3.8459    0.8397 H   0  0  0  0  0  0  0  0  0  0  0  0
   -3.2955   -2.5881    2.0569 H   0  0  0  0  0  0  0  0  0  0  0  0
   -4.5311   -2.4099    0.7903 H   0  0  0  0  0  0  0  0  0  0  0  0
   -3.8478   -1.7501   -1.5856 H   0  0  0  0  0  0  0  0  0  0  0  0
   -2.9913   -3.2696   -1.6331 H   0  0  0  0  0  0  0  0  0  0  0  0
   -2.1325   -1.8139   -2.0567 H   0  0  0  0  0  0  0  0  0  0  0  0
    2.5328   -1.5519    0.2920 H   0  0  0  0  0  0  0  0  0  0  0  0
    2.2625    0.0012    1.1160 H   0  0  0  0  0  0  0  0  0  0  0  0
    3.6006    1.1610   -0.6592 H   0  0  0  0  0  0  0  0  0  0  0  0
    3.9072   -0.4108   -1.4365 H   0  0  0  0  0  0  0  0  0  0  0  0
    6.8145    0.2028    0.4928 H   0  0  0  0  0  0  0  0  0  0  0  0
  1  6  1  0  0  0  0
  1 15  1  0  0  0  0
  2 15  2  0  0  0  0
  3 18  1  0  0  0  0
  3 42  1  0  0  0  0
  4 18  2  0  0  0  0
  5  6  1  0  0  0  0
  5  7  1  0  0  0  0
  5 11  1  0  0  0  0
  5 19  1  0  0  0  0
  6  9  1  0  0  0  0
  6 20  1  0  0  0  0
  7 10  1  0  0  0  0
  7 21  1  0  0  0  0
  7 22  1  0  0  0  0
  8  9  1  0  0  0  0
  8 10  1  0  0  0  0
  8 12  1  0  0  0  0
  8 23  1  0  0  0  0
  9 24  1  0  0  0  0
  9 25  1  0  0  0  0
 10 26  1  0  0  0  0
 10 27  1  0  0  0  0
 11 13  1  0  0  0  0
 11 14  1  0  0  0  0
 11 28  1  0  0  0  0
 12 29  1  0  0  0  0
 12 30  1  0  0  0  0
 12 31  1  0  0  0  0
 13 32  1  0  0  0  0
 13 33  1  0  0  0  0
 13 34  1  0  0  0  0
 14 35  1  0  0  0  0
 14 36  1  0  0  0  0
 14 37  1  0  0  0  0
 15 16  1  0  0  0  0
 16 17  1  0  0  0  0
 16 38  1  0  0  0  0
 16 39  1  0  0  0  0
 17 18  1  0  0  0  0
 17 40  1  0  0  0  0
 17 41  1  0  0  0  0
M  END
> <PUBCHEM_COMPOUND_CID>
11219061

> <PUBCHEM_CONFORMER_RMSD>
0.8

> <PUBCHEM_CONFORMER_DIVERSEORDER>
1
84
88
59
29
26
83
43
87
17
31
37
45
22
64
85
74
49
51
23
6
25
57
9
8
18
62
41
73
67
71
54
7
40
77
30
80
33
5
76
3
79
2
15
52
4
19
81
50
12
32
65
58
35
20
34
46
66
14
27
16
38
53
55
47
48
68
63
13
36
82
56
28
69
39
11
78
70
61
24
86
44
10
21
72
60
75
42

> <PUBCHEM_MMFF94_PARTIAL_CHARGES>
10
1 -0.43
15 0.66
16 0.06
17 0.06
18 0.66
2 -0.57
3 -0.65
4 -0.57
42 0.5
6 0.28

> <PUBCHEM_EFFECTIVE_ROTOR_COUNT>
7.2

> <PUBCHEM_PHARMACOPHORE_FEATURES>
6
1 2 acceptor
1 3 acceptor
1 4 acceptor
3 11 13 14 hydrophobe
3 3 4 18 anion
6 5 6 7 8 9 10 rings

> <PUBCHEM_HEAVY_ATOM_COUNT>
18

> <PUBCHEM_ATOM_DEF_STEREO_COUNT>
3

> <PUBCHEM_ATOM_UDEF_STEREO_COUNT>
0

> <PUBCHEM_BOND_DEF_STEREO_COUNT>
0

> <PUBCHEM_BOND_UDEF_STEREO_COUNT>
0

> <PUBCHEM_ISOTOPIC_ATOM_COUNT>
0

> <PUBCHEM_COMPONENT_COUNT>
1

> <PUBCHEM_CACTVS_TAUTO_COUNT>
1

> <PUBCHEM_CONFORMER_ID>
00AB307500000001

> <PUBCHEM_MMFF94_ENERGY>
32.6443

> <PUBCHEM_FEATURE_SELFOVERLAP>
30.505

> <PUBCHEM_SHAPE_FINGERPRINT>
10319926 262 18341601570193459978
10366900 7 18201707449293425736
10680689 15 18131350825867158742
10912923 1 17894910737850605488
11056379 131 18411147947839226910
11265709 11 18268146642557551503
11315181 36 18040996280659486190
11357001 24 18409453591867559211
11405975 8 18268146458026932122
12107183 9 17757825629348603938
12390115 104 17985281676595668625
12553582 1 18053120681004681039
13140716 1 18339370776616504097
13167823 11 18334011684139360882
13214271 11 18131350812565350213
13296909 8 18410572881402976084
13583140 156 17846767495704674802
13955234 65 16896815562850406537
14178342 30 18334583395335526974
14420673 8 18049724015088745674
14844126 61 18336545010042324187
15042514 8 18336839640909556771
15099037 37 18342741835863749262
16945 1 18264792999017101989
17780758 139 18260819385332045314
17844677 252 18341339946513204388
18927931 339 18341618139444175142
19050596 39 18335143107025538054
200 152 18041271170707981982
20510252 161 18127417756895143081
20645477 56 18272655597418030065
20645477 70 14634870851685376394
21065201 7 18341061718257671142
21339142 126 18342175587686726431
21426921 1 18411418410092145600
21650355 55 18410296951656214825
2306618 200 17822002117043188231
23402539 116 18335135423002309886
23419403 2 17975668882778160773
23557571 272 18130802130683404652
23559900 14 18337382842160453688
23598288 3 18337681931077574999
312423 11 18187939433874199748
5104073 3 18411130326068148082
573450 72 18261105258286610714
5924683 9 18341884203956992494
7364860 26 16971680209957345437
7615 1 17822025232409560340
81228 2 18341067254507139777

> <PUBCHEM_SHAPE_MULTIPOLES>
346.95
9.83
3.1
1.12
18.78
1.66
-0.18
-1.74
2.47
-5.53
0.3
0.18
-0.41
-0.38

> <PUBCHEM_SHAPE_SELFOVERLAP>
685.524

> <PUBCHEM_SHAPE_VOLUME>
205.4

> <PUBCHEM_COORDINATE_TYPE>
2
5
10

$$$$
