112172
  -OEChem-11232109203D

 22 22  0     1  0  0  0  0  0999 V2000
    1.9541   -0.4126   -0.5143 O   0  0  0  0  0  0  0  0  0  0  0  0
   -0.3829   -2.0914   -0.0803 O   0  0  0  0  0  0  0  0  0  0  0  0
   -1.6611   -0.0969    0.4596 C   0  0  2  0  0  0  0  0  0  0  0  0
   -1.1858    1.3568    0.3465 C   0  0  0  0  0  0  0  0  0  0  0  0
    0.2747    1.2676   -0.0008 C   0  0  0  0  0  0  0  0  0  0  0  0
   -0.4386   -0.8775    0.0456 C   0  0  0  0  0  0  0  0  0  0  0  0
    0.7089    0.0136   -0.1796 C   0  0  0  0  0  0  0  0  0  0  0  0
   -2.8519   -0.4066   -0.4304 C   0  0  0  0  0  0  0  0  0  0  0  0
    1.0814    2.5128   -0.1295 C   0  0  0  0  0  0  0  0  0  0  0  0
    2.5012   -1.2659    0.4832 C   0  0  0  0  0  0  0  0  0  0  0  0
   -1.8894   -0.3380    1.5043 H   0  0  0  0  0  0  0  0  0  0  0  0
   -1.3248    1.8775    1.3005 H   0  0  0  0  0  0  0  0  0  0  0  0
   -1.7300    1.9120   -0.4258 H   0  0  0  0  0  0  0  0  0  0  0  0
   -3.7108    0.2165   -0.1617 H   0  0  0  0  0  0  0  0  0  0  0  0
   -2.6184   -0.2336   -1.4869 H   0  0  0  0  0  0  0  0  0  0  0  0
   -3.1479   -1.4562   -0.3298 H   0  0  0  0  0  0  0  0  0  0  0  0
    2.1224    2.3004   -0.3929 H   0  0  0  0  0  0  0  0  0  0  0  0
    1.0807    3.0649    0.8156 H   0  0  0  0  0  0  0  0  0  0  0  0
    0.6630    3.1578   -0.9086 H   0  0  0  0  0  0  0  0  0  0  0  0
    2.0685   -2.2690    0.4265 H   0  0  0  0  0  0  0  0  0  0  0  0
    2.3743   -0.8492    1.4891 H   0  0  0  0  0  0  0  0  0  0  0  0
    3.5748   -1.3583    0.2917 H   0  0  0  0  0  0  0  0  0  0  0  0
  1  7  1  0  0  0  0
  1 10  1  0  0  0  0
  2  6  2  0  0  0  0
  3  4  1  0  0  0  0
  3  6  1  0  0  0  0
  3  8  1  0  0  0  0
  3 11  1  0  0  0  0
  4  5  1  0  0  0  0
  4 12  1  0  0  0  0
  4 13  1  0  0  0  0
  5  7  2  0  0  0  0
  5  9  1  0  0  0  0
  6  7  1  0  0  0  0
  8 14  1  0  0  0  0
  8 15  1  0  0  0  0
  8 16  1  0  0  0  0
  9 17  1  0  0  0  0
  9 18  1  0  0  0  0
  9 19  1  0  0  0  0
 10 20  1  0  0  0  0
 10 21  1  0  0  0  0
 10 22  1  0  0  0  0
M  END
> <PUBCHEM_COMPOUND_CID>
112172

> <PUBCHEM_CONFORMER_RMSD>
0.4

> <PUBCHEM_CONFORMER_DIVERSEORDER>
1
3
4
2

> <PUBCHEM_MMFF94_PARTIAL_CHARGES>
9
1 -0.36
10 0.28
2 -0.57
3 0.06
4 0.14
5 -0.28
6 0.49
7 0.09
9 0.14

> <PUBCHEM_EFFECTIVE_ROTOR_COUNT>
1.4

> <PUBCHEM_PHARMACOPHORE_FEATURES>
3
1 1 acceptor
1 2 acceptor
5 3 4 5 6 7 rings

> <PUBCHEM_HEAVY_ATOM_COUNT>
10

> <PUBCHEM_ATOM_DEF_STEREO_COUNT>
0

> <PUBCHEM_ATOM_UDEF_STEREO_COUNT>
1

> <PUBCHEM_BOND_DEF_STEREO_COUNT>
0

> <PUBCHEM_BOND_UDEF_STEREO_COUNT>
0

> <PUBCHEM_ISOTOPIC_ATOM_COUNT>
0

> <PUBCHEM_COMPONENT_COUNT>
1

> <PUBCHEM_CACTVS_TAUTO_COUNT>
10

> <PUBCHEM_CONFORMER_ID>
0001B62C00000001

> <PUBCHEM_MMFF94_ENERGY>
18.151

> <PUBCHEM_FEATURE_SELFOVERLAP>
15.225

> <PUBCHEM_SHAPE_FINGERPRINT>
12423570 1 14152749982955047836
16945 1 18338240491046768728
18185500 45 18267309720512798675
193761 8 18050568748385311706
21040471 1 18051695743793683913
23552423 10 18120094141363864975
241688 4 18267585697773284144
2748010 2 16608017807889646604
5084963 1 18131634478191614027
54338 74 18337383842739776832

> <PUBCHEM_SHAPE_MULTIPOLES>
194.06
3.07
2.24
0.7
0.45
0.86
-0.02
-1.01
0.08
-0.85
0
0.02
-0.01
-0.26

> <PUBCHEM_SHAPE_SELFOVERLAP>
392.354

> <PUBCHEM_SHAPE_VOLUME>
115.6

> <PUBCHEM_COORDINATE_TYPE>
2
5
10

$$$$
