112240
  -OEChem-11232109463D

 38 37  0     0  0  0  0  0  0999 V2000
   -4.3673   -0.5230   -0.1032 O   0  0  0  0  0  0  0  0  0  0  0  0
   -5.7958    1.2306    0.3673 O   0  0  0  0  0  0  0  0  0  0  0  0
    3.1396   -0.2589   -0.2983 C   0  0  0  0  0  0  0  0  0  0  0  0
    1.8487    0.5139   -0.0130 C   0  0  0  0  0  0  0  0  0  0  0  0
    4.3732    0.6161   -0.0513 C   0  0  0  0  0  0  0  0  0  0  0  0
    0.5810   -0.3207   -0.2180 C   0  0  0  0  0  0  0  0  0  0  0  0
    5.7053   -0.1300   -0.2530 C   0  0  0  0  0  0  0  0  0  0  0  0
   -0.7106    0.4582    0.0431 C   0  0  0  0  0  0  0  0  0  0  0  0
   -1.9421   -0.4328   -0.1487 C   0  0  0  0  0  0  0  0  0  0  0  0
    5.7590   -1.3528    0.6664 C   0  0  0  0  0  0  0  0  0  0  0  0
    6.9209    0.7619    0.0043 C   0  0  0  0  0  0  0  0  0  0  0  0
   -3.2442    0.3286    0.0746 C   0  0  0  0  0  0  0  0  0  0  0  0
   -5.5919    0.0602    0.0742 C   0  0  0  0  0  0  0  0  0  0  0  0
   -6.6759   -0.9513   -0.1444 C   0  0  0  0  0  0  0  0  0  0  0  0
    3.1400   -0.6161   -1.3347 H   0  0  0  0  0  0  0  0  0  0  0  0
    3.1482   -1.1388    0.3524 H   0  0  0  0  0  0  0  0  0  0  0  0
    1.8057    1.3957   -0.6644 H   0  0  0  0  0  0  0  0  0  0  0  0
    1.8674    0.8838    1.0197 H   0  0  0  0  0  0  0  0  0  0  0  0
    4.3342    1.0184    0.9694 H   0  0  0  0  0  0  0  0  0  0  0  0
    4.3425    1.4794   -0.7280 H   0  0  0  0  0  0  0  0  0  0  0  0
    0.6176   -1.1933    0.4461 H   0  0  0  0  0  0  0  0  0  0  0  0
    0.5684   -0.7056   -1.2453 H   0  0  0  0  0  0  0  0  0  0  0  0
    5.7589   -0.4786   -1.2921 H   0  0  0  0  0  0  0  0  0  0  0  0
   -0.7648    1.3155   -0.6384 H   0  0  0  0  0  0  0  0  0  0  0  0
   -0.7004    0.8557    1.0651 H   0  0  0  0  0  0  0  0  0  0  0  0
   -1.9461   -0.8610   -1.1589 H   0  0  0  0  0  0  0  0  0  0  0  0
   -1.9016   -1.2874    0.5381 H   0  0  0  0  0  0  0  0  0  0  0  0
    6.7545   -1.8106    0.6403 H   0  0  0  0  0  0  0  0  0  0  0  0
    5.0550   -2.1290    0.3525 H   0  0  0  0  0  0  0  0  0  0  0  0
    5.5435   -1.0844    1.7062 H   0  0  0  0  0  0  0  0  0  0  0  0
    6.9044    1.6349   -0.6564 H   0  0  0  0  0  0  0  0  0  0  0  0
    6.9371    1.1207    1.0390 H   0  0  0  0  0  0  0  0  0  0  0  0
    7.8527    0.2178   -0.1824 H   0  0  0  0  0  0  0  0  0  0  0  0
   -3.2597    0.7356    1.0929 H   0  0  0  0  0  0  0  0  0  0  0  0
   -3.3080    1.1609   -0.6367 H   0  0  0  0  0  0  0  0  0  0  0  0
   -6.5746   -1.7647    0.5782 H   0  0  0  0  0  0  0  0  0  0  0  0
   -6.6238   -1.3349   -1.1664 H   0  0  0  0  0  0  0  0  0  0  0  0
   -7.6503   -0.4760    0.0002 H   0  0  0  0  0  0  0  0  0  0  0  0
  1 12  1  0  0  0  0
  1 13  1  0  0  0  0
  2 13  2  0  0  0  0
  3  4  1  0  0  0  0
  3  5  1  0  0  0  0
  3 15  1  0  0  0  0
  3 16  1  0  0  0  0
  4  6  1  0  0  0  0
  4 17  1  0  0  0  0
  4 18  1  0  0  0  0
  5  7  1  0  0  0  0
  5 19  1  0  0  0  0
  5 20  1  0  0  0  0
  6  8  1  0  0  0  0
  6 21  1  0  0  0  0
  6 22  1  0  0  0  0
  7 10  1  0  0  0  0
  7 11  1  0  0  0  0
  7 23  1  0  0  0  0
  8  9  1  0  0  0  0
  8 24  1  0  0  0  0
  8 25  1  0  0  0  0
  9 12  1  0  0  0  0
  9 26  1  0  0  0  0
  9 27  1  0  0  0  0
 10 28  1  0  0  0  0
 10 29  1  0  0  0  0
 10 30  1  0  0  0  0
 11 31  1  0  0  0  0
 11 32  1  0  0  0  0
 11 33  1  0  0  0  0
 12 34  1  0  0  0  0
 12 35  1  0  0  0  0
 13 14  1  0  0  0  0
 14 36  1  0  0  0  0
 14 37  1  0  0  0  0
 14 38  1  0  0  0  0
M  END
> <PUBCHEM_COMPOUND_CID>
112240

> <PUBCHEM_CONFORMER_RMSD>
0.8

> <PUBCHEM_CONFORMER_DIVERSEORDER>
1
123
259
286
10
120
250
23
6
261
139
179
18
25
5
133
226
224
9
91
184
168
213
57
33
21
183
116
154
189
58
178
242
69
182
44
99
80
11
173
3
46
201
268
28
39
239
8
56
181
37
203
225
128
134
164
42
228
279
130
14
65
194
260
218
4
2
67
282
93
135
219
68
92
267
122
74
162
172
24
97
220
98
161
175
151
195
129
217
87
138
215
16
62
280
12
75
59
95
19
47
270
136
204
106
269
26
148
156
214
15
223
54
170
144
72
251
171
231
108
22
119
275
192
100
227
256
90
53
82
158
140
85
78
188
273
272
236
13
49
105
276
113
187
137
30
118
185
191
177
121
266
40
166
193
83
233
36
149
104
222
35
96
31
61
216
63
271
160
238
254
81
141
190
211
263
48
94
142
34
147
202
27
43
51
244
124
117
157
200
66
60
150
55
152
111
199
208
17
84
114
252
165
76
45
29
283
253
198
209
197
127
32
281
89
159
73
7
212
79
285
277
180
167
237
243
132
284
230
232
112
235
109
71
274
169
153
110
234
101
38
186
41
205
229
20
163
146
70
88
103
126
145
86
155
131
52
248
143
125
64
245
206
196
278
176
174
77
258
246
247
115
262
107
257
102
207
240
210
241
221
255
265
50
249
264

> <PUBCHEM_MMFF94_PARTIAL_CHARGES>
5
1 -0.43
12 0.28
13 0.66
14 0.06
2 -0.57

> <PUBCHEM_EFFECTIVE_ROTOR_COUNT>
9

> <PUBCHEM_PHARMACOPHORE_FEATURES>
2
1 2 acceptor
3 7 10 11 hydrophobe

> <PUBCHEM_HEAVY_ATOM_COUNT>
14

> <PUBCHEM_ATOM_DEF_STEREO_COUNT>
0

> <PUBCHEM_ATOM_UDEF_STEREO_COUNT>
0

> <PUBCHEM_BOND_DEF_STEREO_COUNT>
0

> <PUBCHEM_BOND_UDEF_STEREO_COUNT>
0

> <PUBCHEM_ISOTOPIC_ATOM_COUNT>
0

> <PUBCHEM_COMPONENT_COUNT>
1

> <PUBCHEM_CACTVS_TAUTO_COUNT>
1

> <PUBCHEM_CONFORMER_ID>
0001B67000000001

> <PUBCHEM_MMFF94_ENERGY>
7.6011

> <PUBCHEM_FEATURE_SELFOVERLAP>
10.148

> <PUBCHEM_SHAPE_FINGERPRINT>
11315181 36 18410577306168830633
12091667 2 17917993884837501703
13533116 47 18261951856813345890
1420 363 15502378915296917888
14251718 22 18272653445850235889
14251732 16 18412262852270718592
14251764 18 18411136948332691750
14251764 46 17458062677158742499
17834076 25 18410293618281577623
20281389 69 18410011030956310321
20621476 38 18339643326989153854
20621476 8 17240479165981838533
20767249 213 17275105046040153124
22224240 67 17458341974951076778
23035841 295 17894347778563600555
23402539 116 18201715159181838789
23521765 1 18341895203235881548
23536379 177 18408886221960169776
33684 2 18410573989446424943
42788 4 18413389843299779405
4463277 17 18413670214485985568
8209 1 18411982472853592308

> <PUBCHEM_SHAPE_MULTIPOLES>
276.37
21.01
1.04
0.66
4.36
0.1
0.01
1.07
1.08
-0.25
0.11
-0.2
0.04
-0.6

> <PUBCHEM_SHAPE_SELFOVERLAP>
502.817

> <PUBCHEM_SHAPE_VOLUME>
177.2

> <PUBCHEM_COORDINATE_TYPE>
2
5
10

$$$$
