112226
  -OEChem-11232108423D

 34 35  0     1  0  0  0  0  0999 V2000
   -2.1578    1.1308   -1.6694 O   0  0  0  0  0  0  0  0  0  0  0  0
    1.6157    0.8379    0.1996 C   0  0  0  0  0  0  0  0  0  0  0  0
    0.2411    0.1590    0.3424 C   0  0  0  0  0  0  0  0  0  0  0  0
    0.0552   -1.1540    0.0756 C   0  0  0  0  0  0  0  0  0  0  0  0
    2.7544   -0.2107    0.0855 C   0  0  0  0  0  0  0  0  0  0  0  0
   -0.9146    1.0381    0.7955 C   0  0  0  0  0  0  0  0  0  0  0  0
    1.1530   -2.0611   -0.4270 C   0  0  0  0  0  0  0  0  0  0  0  0
    2.4103   -1.3320   -0.8825 C   0  0  0  0  0  0  0  0  0  0  0  0
   -2.3092    0.4288    0.6277 C   0  0  2  0  0  0  0  0  0  0  0  0
   -1.2753   -1.8490    0.2500 C   0  0  0  0  0  0  0  0  0  0  0  0
   -2.3187   -1.0418    1.0197 C   0  0  0  0  0  0  0  0  0  0  0  0
    1.6154    1.7287   -1.0618 C   0  0  0  0  0  0  0  0  0  0  0  0
    1.9435    1.7227    1.4216 C   0  0  0  0  0  0  0  0  0  0  0  0
   -2.8128    0.6028   -0.7768 C   0  0  0  0  0  0  0  0  0  0  0  0
    2.9572   -0.6522    1.0713 H   0  0  0  0  0  0  0  0  0  0  0  0
    3.6881    0.2705   -0.2321 H   0  0  0  0  0  0  0  0  0  0  0  0
   -0.7683    1.2416    1.8648 H   0  0  0  0  0  0  0  0  0  0  0  0
   -0.8753    2.0093    0.2902 H   0  0  0  0  0  0  0  0  0  0  0  0
    1.4147   -2.7596    0.3781 H   0  0  0  0  0  0  0  0  0  0  0  0
    0.7824   -2.6650   -1.2642 H   0  0  0  0  0  0  0  0  0  0  0  0
    3.2432   -2.0420   -0.9451 H   0  0  0  0  0  0  0  0  0  0  0  0
    2.2662   -0.9329   -1.8932 H   0  0  0  0  0  0  0  0  0  0  0  0
   -3.0125    0.9786    1.2655 H   0  0  0  0  0  0  0  0  0  0  0  0
   -1.6683   -2.0927   -0.7453 H   0  0  0  0  0  0  0  0  0  0  0  0
   -1.1277   -2.8022    0.7726 H   0  0  0  0  0  0  0  0  0  0  0  0
   -3.3094   -1.4840    0.8588 H   0  0  0  0  0  0  0  0  0  0  0  0
   -2.1103   -1.1233    2.0946 H   0  0  0  0  0  0  0  0  0  0  0  0
    2.6117    2.1450   -1.2505 H   0  0  0  0  0  0  0  0  0  0  0  0
    1.3127    1.1716   -1.9552 H   0  0  0  0  0  0  0  0  0  0  0  0
    0.9290    2.5766   -0.9610 H   0  0  0  0  0  0  0  0  0  0  0  0
    2.9579    2.1321    1.3489 H   0  0  0  0  0  0  0  0  0  0  0  0
    1.2604    2.5751    1.5067 H   0  0  0  0  0  0  0  0  0  0  0  0
    1.8817    1.1504    2.3545 H   0  0  0  0  0  0  0  0  0  0  0  0
   -3.8365    0.2383   -0.9695 H   0  0  0  0  0  0  0  0  0  0  0  0
  1 14  2  0  0  0  0
  2  3  1  0  0  0  0
  2  5  1  0  0  0  0
  2 12  1  0  0  0  0
  2 13  1  0  0  0  0
  3  4  2  0  0  0  0
  3  6  1  0  0  0  0
  4  7  1  0  0  0  0
  4 10  1  0  0  0  0
  5  8  1  0  0  0  0
  5 15  1  0  0  0  0
  5 16  1  0  0  0  0
  6  9  1  0  0  0  0
  6 17  1  0  0  0  0
  6 18  1  0  0  0  0
  7  8  1  0  0  0  0
  7 19  1  0  0  0  0
  7 20  1  0  0  0  0
  8 21  1  0  0  0  0
  8 22  1  0  0  0  0
  9 11  1  0  0  0  0
  9 14  1  0  0  0  0
  9 23  1  0  0  0  0
 10 11  1  0  0  0  0
 10 24  1  0  0  0  0
 10 25  1  0  0  0  0
 11 26  1  0  0  0  0
 11 27  1  0  0  0  0
 12 28  1  0  0  0  0
 12 29  1  0  0  0  0
 12 30  1  0  0  0  0
 13 31  1  0  0  0  0
 13 32  1  0  0  0  0
 13 33  1  0  0  0  0
 14 34  1  0  0  0  0
M  END
> <PUBCHEM_COMPOUND_CID>
112226

> <PUBCHEM_CONFORMER_RMSD>
0.6

> <PUBCHEM_CONFORMER_DIVERSEORDER>
1
4
2
5
3

> <PUBCHEM_MMFF94_PARTIAL_CHARGES>
10
1 -0.57
10 0.14
14 0.45
2 0.14
3 -0.28
34 0.06
4 -0.28
6 0.14
7 0.14
9 0.06

> <PUBCHEM_EFFECTIVE_ROTOR_COUNT>
2.6

> <PUBCHEM_PHARMACOPHORE_FEATURES>
4
1 1 acceptor
3 2 12 13 hydrophobe
6 2 3 4 5 7 8 rings
6 3 4 6 9 10 11 rings

> <PUBCHEM_HEAVY_ATOM_COUNT>
14

> <PUBCHEM_ATOM_DEF_STEREO_COUNT>
0

> <PUBCHEM_ATOM_UDEF_STEREO_COUNT>
1

> <PUBCHEM_BOND_DEF_STEREO_COUNT>
0

> <PUBCHEM_BOND_UDEF_STEREO_COUNT>
0

> <PUBCHEM_ISOTOPIC_ATOM_COUNT>
0

> <PUBCHEM_COMPONENT_COUNT>
1

> <PUBCHEM_CACTVS_TAUTO_COUNT>
2

> <PUBCHEM_CONFORMER_ID>
0001B66200000001

> <PUBCHEM_MMFF94_ENERGY>
18.3253

> <PUBCHEM_FEATURE_SELFOVERLAP>
20.313

> <PUBCHEM_SHAPE_FINGERPRINT>
12138202 97 18114175311563757991
12423570 1 15885802019169106762
12524768 44 18411983537620483371
12932764 1 17603594018825596145
13294875 104 17608063409159935779
13380536 237 18267850830404792410
14251745 187 17973992956274172988
14614273 12 17979909733179911495
14817 1 9574839484401306708
15219456 202 18410298029350225275
15775835 57 18127989695787346626
15852999 172 18195778929820011801
16945 1 18272933782639702626
17775402 16 17902795158732717447
17844478 74 18042424541647350851
18186145 218 18263635174623753037
20082192 1 18187369869196655089
20201158 50 18340489975841530299
20511035 2 18340767156214870358
21501502 16 18338810025227382755
21947302 44 18188756254733048021
22802520 49 18261396628593567149
2334 1 18125445451698183346
23419403 2 15368891404699246371
23552423 10 18336276733272974490
25 1 17902792955857547821
2748010 2 18268997651192207978
5084963 1 18261402186054433882
5255222 1 18054237797254458002
63268167 104 18269835315717176442
7364860 26 18059586814392387530
81228 2 18043818808370176003

> <PUBCHEM_SHAPE_MULTIPOLES>
282.24
4.13
2.15
1.26
0.73
0.47
-0.19
-0.37
-0.36
-0.71
-0.07
0.24
-0.52
0.82

> <PUBCHEM_SHAPE_SELFOVERLAP>
581.611

> <PUBCHEM_SHAPE_VOLUME>
160.5

> <PUBCHEM_COORDINATE_TYPE>
2
5
10

$$$$
