112494
  -OEChem-11232109473D

 35 35  0     1  0  0  0  0  0999 V2000
    5.1426   -0.8519   -0.0785 O   0  0  0  0  0  0  0  0  0  0  0  0
   -2.8365   -0.8393   -0.0281 C   0  0  0  0  0  0  0  0  0  0  0  0
   -1.7031    0.1998   -0.0178 C   0  0  0  0  0  0  0  0  0  0  0  0
   -3.9545   -0.3788   -0.9883 C   0  0  0  0  0  0  0  0  0  0  0  0
   -3.4182   -0.9880    1.3944 C   0  0  0  0  0  0  0  0  0  0  0  0
   -2.3908   -2.2459   -0.4879 C   0  0  0  0  0  0  0  0  0  0  0  0
    0.5799    0.7422   -0.3923 C   0  0  0  0  0  0  0  0  0  0  0  0
   -0.4481   -0.2006   -0.4027 C   0  0  0  0  0  0  0  0  0  0  0  0
    1.9584    0.3474   -0.8027 C   0  0  0  0  0  0  0  0  0  0  0  0
    2.8457   -0.1618    0.3547 C   0  0  1  0  0  0  0  0  0  0  0  0
   -1.9979    1.4808    0.3771 C   0  0  0  0  0  0  0  0  0  0  0  0
    0.3189    2.0543    0.0027 C   0  0  0  0  0  0  0  0  0  0  0  0
   -0.9699    2.4236    0.3874 C   0  0  0  0  0  0  0  0  0  0  0  0
    2.5688   -1.6241    0.6988 C   0  0  0  0  0  0  0  0  0  0  0  0
    4.3047    0.0422   -0.0168 C   0  0  0  0  0  0  0  0  0  0  0  0
   -4.7561   -1.1246   -1.0468 H   0  0  0  0  0  0  0  0  0  0  0  0
   -4.4183    0.5612   -0.6702 H   0  0  0  0  0  0  0  0  0  0  0  0
   -3.5662   -0.2278   -2.0027 H   0  0  0  0  0  0  0  0  0  0  0  0
   -3.8714   -0.0602    1.7601 H   0  0  0  0  0  0  0  0  0  0  0  0
   -4.2002   -1.7560    1.4224 H   0  0  0  0  0  0  0  0  0  0  0  0
   -2.6404   -1.2791    2.1104 H   0  0  0  0  0  0  0  0  0  0  0  0
   -3.2366   -2.9448   -0.4749 H   0  0  0  0  0  0  0  0  0  0  0  0
   -2.0073   -2.2402   -1.5151 H   0  0  0  0  0  0  0  0  0  0  0  0
   -1.6254   -2.6708    0.1724 H   0  0  0  0  0  0  0  0  0  0  0  0
   -0.2051   -1.2068   -0.7198 H   0  0  0  0  0  0  0  0  0  0  0  0
    2.4339    1.2142   -1.2831 H   0  0  0  0  0  0  0  0  0  0  0  0
    1.9106   -0.4078   -1.5993 H   0  0  0  0  0  0  0  0  0  0  0  0
    2.6802    0.4470    1.2527 H   0  0  0  0  0  0  0  0  0  0  0  0
   -2.9919    1.7908    0.6805 H   0  0  0  0  0  0  0  0  0  0  0  0
    1.1114    2.7978    0.0178 H   0  0  0  0  0  0  0  0  0  0  0  0
   -1.1728    3.4451    0.6956 H   0  0  0  0  0  0  0  0  0  0  0  0
    2.7057   -2.2725   -0.1736 H   0  0  0  0  0  0  0  0  0  0  0  0
    1.5488   -1.7591    1.0702 H   0  0  0  0  0  0  0  0  0  0  0  0
    3.2514   -1.9761    1.4804 H   0  0  0  0  0  0  0  0  0  0  0  0
    4.5960    1.0886   -0.2161 H   0  0  0  0  0  0  0  0  0  0  0  0
  1 15  2  0  0  0  0
  2  3  1  0  0  0  0
  2  4  1  0  0  0  0
  2  5  1  0  0  0  0
  2  6  1  0  0  0  0
  3  8  1  0  0  0  0
  3 11  2  0  0  0  0
  4 16  1  0  0  0  0
  4 17  1  0  0  0  0
  4 18  1  0  0  0  0
  5 19  1  0  0  0  0
  5 20  1  0  0  0  0
  5 21  1  0  0  0  0
  6 22  1  0  0  0  0
  6 23  1  0  0  0  0
  6 24  1  0  0  0  0
  7  8  2  0  0  0  0
  7  9  1  0  0  0  0
  7 12  1  0  0  0  0
  8 25  1  0  0  0  0
  9 10  1  0  0  0  0
  9 26  1  0  0  0  0
  9 27  1  0  0  0  0
 10 14  1  0  0  0  0
 10 15  1  0  0  0  0
 10 28  1  0  0  0  0
 11 13  1  0  0  0  0
 11 29  1  0  0  0  0
 12 13  2  0  0  0  0
 12 30  1  0  0  0  0
 13 31  1  0  0  0  0
 14 32  1  0  0  0  0
 14 33  1  0  0  0  0
 14 34  1  0  0  0  0
 15 35  1  0  0  0  0
M  END
> <PUBCHEM_COMPOUND_CID>
112494

> <PUBCHEM_CONFORMER_RMSD>
0.6

> <PUBCHEM_CONFORMER_DIVERSEORDER>
1
49
47
17
45
40
46
28
21
48
29
36
34
38
19
12
44
41
33
43
20
39
22
37
14
31
16
7
42
26
11
15
6
8
30
23
32
25
35
13
18
10
24
5
3
9
4
27
2

> <PUBCHEM_MMFF94_PARTIAL_CHARGES>
16
1 -0.57
10 0.06
11 -0.15
12 -0.15
13 -0.15
15 0.45
2 0.14
25 0.15
29 0.15
3 -0.14
30 0.15
31 0.15
35 0.06
7 -0.14
8 -0.15
9 0.14

> <PUBCHEM_EFFECTIVE_ROTOR_COUNT>
4

> <PUBCHEM_PHARMACOPHORE_FEATURES>
4
1 1 acceptor
1 14 hydrophobe
4 2 4 5 6 hydrophobe
6 3 7 8 11 12 13 rings

> <PUBCHEM_HEAVY_ATOM_COUNT>
15

> <PUBCHEM_ATOM_DEF_STEREO_COUNT>
0

> <PUBCHEM_ATOM_UDEF_STEREO_COUNT>
1

> <PUBCHEM_BOND_DEF_STEREO_COUNT>
0

> <PUBCHEM_BOND_UDEF_STEREO_COUNT>
0

> <PUBCHEM_ISOTOPIC_ATOM_COUNT>
0

> <PUBCHEM_COMPONENT_COUNT>
1

> <PUBCHEM_CACTVS_TAUTO_COUNT>
2

> <PUBCHEM_CONFORMER_ID>
0001B76E00000001

> <PUBCHEM_MMFF94_ENERGY>
44.7366

> <PUBCHEM_FEATURE_SELFOVERLAP>
20.297

> <PUBCHEM_SHAPE_FINGERPRINT>
10130415 120 18340491161774568013
10616163 171 18339361868722664534
11046707 91 18410011026972072646
11543360 7 15936698167479102054
124424 183 18335417993728145207
12500047 106 18193550069712049564
12553582 1 18340216279134891407
13140716 1 18126855013026071419
14178342 30 17488481800503254111
14252887 29 18201450185348380750
14787075 74 18120370110936586536
15375462 189 18334861666007951170
16752209 62 18337942403426486605
16945 1 18272101525605082357
18186145 218 12540694855282180334
200 152 18335134301989251006
20281475 54 18339086015667844077
20291156 8 18408885165498630026
20510252 161 18130791088185317128
20645477 70 18338512066371730335
20671657 53 17385445436044788492
20871998 184 18201720604752042204
21267235 1 18410019844202672023
21650355 55 18342455919885904544
2297311 6 18202015308940096612
232386 152 18339085985439452070
23402539 116 18202274793541865973
23557571 272 18059861619242981780
23559900 14 18411691111047185352
23598294 1 18340485543524783216
25 1 11025785501065192549
26918003 58 18040713679736790370
2748010 2 17911260337926375685
2871803 45 18334288747920699794
3312278 4 18333731295082091434
4921388 177 15285366145344577171
5104073 3 18340484457678688568
5493415 88 18267583692244940257
81228 2 18269851817303729345
83771 10 18408888468185932457
9709674 26 18269840826566724214

> <PUBCHEM_SHAPE_MULTIPOLES>
302.82
7.77
2.18
0.95
6.8
0.59
0.1
-3.89
0.11
-0.88
0.24
-0.59
-0.18
-0.34

> <PUBCHEM_SHAPE_SELFOVERLAP>
614.986

> <PUBCHEM_SHAPE_VOLUME>
177.8

> <PUBCHEM_COORDINATE_TYPE>
2
5
10

$$$$
