112492
  -OEChem-11232109173D

 26 25  0     0  0  0  0  0  0999 V2000
    4.9782    0.0341   -0.1374 O   0  0  0  0  0  0  0  0  0  0  0  0
   -3.1991   -0.6358    0.1593 C   0  0  0  0  0  0  0  0  0  0  0  0
   -3.1596    0.8348   -0.2690 C   0  0  0  0  0  0  0  0  0  0  0  0
   -1.9700   -1.4644   -0.2294 C   0  0  0  0  0  0  0  0  0  0  0  0
   -4.4204    1.6056    0.0909 C   0  0  0  0  0  0  0  0  0  0  0  0
   -0.7034   -0.9703    0.4091 C   0  0  0  0  0  0  0  0  0  0  0  0
    0.3622   -0.5454   -0.2863 C   0  0  0  0  0  0  0  0  0  0  0  0
    1.5749   -0.0692    0.3388 C   0  0  0  0  0  0  0  0  0  0  0  0
    2.6404    0.3556   -0.3564 C   0  0  0  0  0  0  0  0  0  0  0  0
    3.8968    0.8551    0.2803 C   0  0  0  0  0  0  0  0  0  0  0  0
   -3.3393   -0.6863    1.2470 H   0  0  0  0  0  0  0  0  0  0  0  0
   -4.0831   -1.1088   -0.2869 H   0  0  0  0  0  0  0  0  0  0  0  0
   -2.3042    1.3358    0.1981 H   0  0  0  0  0  0  0  0  0  0  0  0
   -3.0082    0.8910   -1.3536 H   0  0  0  0  0  0  0  0  0  0  0  0
   -1.8768   -1.4789   -1.3222 H   0  0  0  0  0  0  0  0  0  0  0  0
   -2.1292   -2.5029    0.0849 H   0  0  0  0  0  0  0  0  0  0  0  0
   -4.3376    2.6460   -0.2386 H   0  0  0  0  0  0  0  0  0  0  0  0
   -5.2985    1.1641   -0.3907 H   0  0  0  0  0  0  0  0  0  0  0  0
   -4.5839    1.6021    1.1732 H   0  0  0  0  0  0  0  0  0  0  0  0
   -0.6757   -0.9744    1.4966 H   0  0  0  0  0  0  0  0  0  0  0  0
    0.3282   -0.5476   -1.3729 H   0  0  0  0  0  0  0  0  0  0  0  0
    1.6065   -0.0617    1.4254 H   0  0  0  0  0  0  0  0  0  0  0  0
    2.6150    0.3535   -1.4440 H   0  0  0  0  0  0  0  0  0  0  0  0
    3.8443    0.8323    1.3735 H   0  0  0  0  0  0  0  0  0  0  0  0
    4.0920    1.8828   -0.0412 H   0  0  0  0  0  0  0  0  0  0  0  0
    5.7837    0.3924    0.2731 H   0  0  0  0  0  0  0  0  0  0  0  0
  1 10  1  0  0  0  0
  1 26  1  0  0  0  0
  2  3  1  0  0  0  0
  2  4  1  0  0  0  0
  2 11  1  0  0  0  0
  2 12  1  0  0  0  0
  3  5  1  0  0  0  0
  3 13  1  0  0  0  0
  3 14  1  0  0  0  0
  4  6  1  0  0  0  0
  4 15  1  0  0  0  0
  4 16  1  0  0  0  0
  5 17  1  0  0  0  0
  5 18  1  0  0  0  0
  5 19  1  0  0  0  0
  6  7  2  3  0  0  0
  6 20  1  0  0  0  0
  7  8  1  0  0  0  0
  7 21  1  0  0  0  0
  8  9  2  3  0  0  0
  8 22  1  0  0  0  0
  9 10  1  0  0  0  0
  9 23  1  0  0  0  0
 10 24  1  0  0  0  0
 10 25  1  0  0  0  0
M  END
> <PUBCHEM_COMPOUND_CID>
112492

> <PUBCHEM_CONFORMER_RMSD>
0.6

> <PUBCHEM_CONFORMER_DIVERSEORDER>
3
31
61
10
30
56
12
22
28
4
26
35
59
45
27
16
44
62
57
50
2
37
8
18
42
25
54
36
41
5
23
48
34
60
43
15
58
21
11
32
49
63
29
39
9
52
19
13
51
1
53
14
6
55
40
20
33
47
46
24
17
38
7

> <PUBCHEM_MMFF94_PARTIAL_CHARGES>
12
1 -0.68
10 0.42
20 0.15
21 0.15
22 0.15
23 0.15
26 0.4
4 0.14
6 -0.29
7 -0.15
8 -0.15
9 -0.29

> <PUBCHEM_EFFECTIVE_ROTOR_COUNT>
5

> <PUBCHEM_PHARMACOPHORE_FEATURES>
4
1 1 acceptor
1 1 donor
1 5 hydrophobe
4 2 3 4 6 hydrophobe

> <PUBCHEM_HEAVY_ATOM_COUNT>
10

> <PUBCHEM_ATOM_DEF_STEREO_COUNT>
0

> <PUBCHEM_ATOM_UDEF_STEREO_COUNT>
0

> <PUBCHEM_BOND_DEF_STEREO_COUNT>
0

> <PUBCHEM_BOND_UDEF_STEREO_COUNT>
2

> <PUBCHEM_ISOTOPIC_ATOM_COUNT>
0

> <PUBCHEM_COMPONENT_COUNT>
1

> <PUBCHEM_CACTVS_TAUTO_COUNT>
1

> <PUBCHEM_CONFORMER_ID>
0001B76C00000003

> <PUBCHEM_MMFF94_ENERGY>
0.6582

> <PUBCHEM_FEATURE_SELFOVERLAP>
20.298

> <PUBCHEM_SHAPE_FINGERPRINT>
100836 57 18335709320843218789
11987891 27 13470695828061273308
14123255 352 18335698330196053285
14252887 29 13840260364974896992
14455015 7 13768195061708192768
15501527 16 18412267237522310545
15775835 57 18334294236894107497
177051 138 9079112263126480969
17834072 8 18272095955148524734
20621476 66 18409174285681119100
20645477 56 18413674616959033935
20645477 70 16988578878826381566
20724930 31 10737290138505941620
20724930 69 18410856542692100481
20767249 213 18186237329924318621
20828058 44 8502383225780603142
21061003 4 13912323503689166103
23380061 127 18337388352714296607
23402539 116 18130781261352832852
23500284 214 18409454652893267065
23557571 272 18131075973782649207
6430166 295 18410008827795914216

> <PUBCHEM_SHAPE_MULTIPOLES>
199.93
9.5
1.42
0.68
4.89
0.09
0.01
4.42
-0.02
-1.62
0.01
0
-0.01
0.05

> <PUBCHEM_SHAPE_SELFOVERLAP>
361.796

> <PUBCHEM_SHAPE_VOLUME>
128

> <PUBCHEM_COORDINATE_TYPE>
2
5
10

$$$$
