112457
  -OEChem-11232109243D

 35 35  0     1  0  0  0  0  0999 V2000
   -0.5741    0.8567   -0.5268 O   0  0  0  0  0  0  0  0  0  0  0  0
   -1.7683   -0.8883    0.6353 O   0  0  0  0  0  0  0  0  0  0  0  0
    0.5590   -1.2430   -0.0354 C   0  0  0  0  0  0  0  0  0  0  0  0
    0.5513    0.3014    0.1627 C   0  0  1  0  0  0  0  0  0  0  0  0
    1.7984    1.0300   -0.3272 C   0  0  0  0  0  0  0  0  0  0  0  0
   -0.8987   -1.7670   -0.0753 C   0  0  0  0  0  0  0  0  0  0  0  0
   -1.8192    0.4173    0.0389 C   0  0  0  0  0  0  0  0  0  0  0  0
    1.3074   -1.8903    1.1463 C   0  0  0  0  0  0  0  0  0  0  0  0
    1.2497   -1.6838   -1.3397 C   0  0  0  0  0  0  0  0  0  0  0  0
    1.6597    2.5354   -0.1123 C   0  0  0  0  0  0  0  0  0  0  0  0
    3.0432    0.4990    0.3803 C   0  0  0  0  0  0  0  0  0  0  0  0
   -2.2455    1.3986    1.1335 C   0  0  0  0  0  0  0  0  0  0  0  0
   -2.8626    0.4339   -1.0803 C   0  0  0  0  0  0  0  0  0  0  0  0
    0.4288    0.5315    1.2301 H   0  0  0  0  0  0  0  0  0  0  0  0
    1.9183    0.8947   -1.4092 H   0  0  0  0  0  0  0  0  0  0  0  0
   -1.2652   -1.8714   -1.1033 H   0  0  0  0  0  0  0  0  0  0  0  0
   -0.9835   -2.7595    0.3803 H   0  0  0  0  0  0  0  0  0  0  0  0
    2.3913   -1.7962    1.1122 H   0  0  0  0  0  0  0  0  0  0  0  0
    0.9556   -1.4984    2.1072 H   0  0  0  0  0  0  0  0  0  0  0  0
    1.1215   -2.9720    1.1635 H   0  0  0  0  0  0  0  0  0  0  0  0
    1.1142   -2.7613   -1.4962 H   0  0  0  0  0  0  0  0  0  0  0  0
    0.8088   -1.1752   -2.2048 H   0  0  0  0  0  0  0  0  0  0  0  0
    2.3252   -1.5078   -1.3634 H   0  0  0  0  0  0  0  0  0  0  0  0
    0.8155    2.9484   -0.6740 H   0  0  0  0  0  0  0  0  0  0  0  0
    2.5592    3.0610   -0.4513 H   0  0  0  0  0  0  0  0  0  0  0  0
    1.5122    2.7739    0.9468 H   0  0  0  0  0  0  0  0  0  0  0  0
    3.4120   -0.4432   -0.0218 H   0  0  0  0  0  0  0  0  0  0  0  0
    3.8748    1.2010    0.2382 H   0  0  0  0  0  0  0  0  0  0  0  0
    2.8957    0.4158    1.4621 H   0  0  0  0  0  0  0  0  0  0  0  0
   -2.2724    2.4271    0.7580 H   0  0  0  0  0  0  0  0  0  0  0  0
   -3.2287    1.1373    1.5395 H   0  0  0  0  0  0  0  0  0  0  0  0
   -1.5431    1.3800    1.9738 H   0  0  0  0  0  0  0  0  0  0  0  0
   -2.5558   -0.2056   -1.9149 H   0  0  0  0  0  0  0  0  0  0  0  0
   -3.8316    0.0656   -0.7274 H   0  0  0  0  0  0  0  0  0  0  0  0
   -2.9878    1.4421   -1.4902 H   0  0  0  0  0  0  0  0  0  0  0  0
  1  4  1  0  0  0  0
  1  7  1  0  0  0  0
  2  6  1  0  0  0  0
  2  7  1  0  0  0  0
  3  4  1  0  0  0  0
  3  6  1  0  0  0  0
  3  8  1  0  0  0  0
  3  9  1  0  0  0  0
  4  5  1  0  0  0  0
  4 14  1  0  0  0  0
  5 10  1  0  0  0  0
  5 11  1  0  0  0  0
  5 15  1  0  0  0  0
  6 16  1  0  0  0  0
  6 17  1  0  0  0  0
  7 12  1  0  0  0  0
  7 13  1  0  0  0  0
  8 18  1  0  0  0  0
  8 19  1  0  0  0  0
  8 20  1  0  0  0  0
  9 21  1  0  0  0  0
  9 22  1  0  0  0  0
  9 23  1  0  0  0  0
 10 24  1  0  0  0  0
 10 25  1  0  0  0  0
 10 26  1  0  0  0  0
 11 27  1  0  0  0  0
 11 28  1  0  0  0  0
 11 29  1  0  0  0  0
 12 30  1  0  0  0  0
 12 31  1  0  0  0  0
 12 32  1  0  0  0  0
 13 33  1  0  0  0  0
 13 34  1  0  0  0  0
 13 35  1  0  0  0  0
M  END
> <PUBCHEM_COMPOUND_CID>
112457

> <PUBCHEM_CONFORMER_RMSD>
0.6

> <PUBCHEM_CONFORMER_DIVERSEORDER>
1
2

> <PUBCHEM_MMFF94_PARTIAL_CHARGES>
5
1 -0.56
2 -0.56
4 0.28
6 0.28
7 0.56

> <PUBCHEM_EFFECTIVE_ROTOR_COUNT>
2.2

> <PUBCHEM_PHARMACOPHORE_FEATURES>
6
1 1 acceptor
1 2 acceptor
3 3 8 9 hydrophobe
3 5 10 11 hydrophobe
3 7 12 13 hydrophobe
6 1 2 3 4 6 7 rings

> <PUBCHEM_HEAVY_ATOM_COUNT>
13

> <PUBCHEM_ATOM_DEF_STEREO_COUNT>
0

> <PUBCHEM_ATOM_UDEF_STEREO_COUNT>
1

> <PUBCHEM_BOND_DEF_STEREO_COUNT>
0

> <PUBCHEM_BOND_UDEF_STEREO_COUNT>
0

> <PUBCHEM_ISOTOPIC_ATOM_COUNT>
0

> <PUBCHEM_COMPONENT_COUNT>
1

> <PUBCHEM_CACTVS_TAUTO_COUNT>
1

> <PUBCHEM_CONFORMER_ID>
0001B74900000001

> <PUBCHEM_MMFF94_ENERGY>
51.1577

> <PUBCHEM_FEATURE_SELFOVERLAP>
30.476

> <PUBCHEM_SHAPE_FINGERPRINT>
12326174 3 18266177240674100950
12423570 1 11918039681037490414
12524768 44 18196657302156008911
12696612 119 18336554828115425120
13380535 76 18411695504323748095
15076042 46 18050573142463766840
15490181 8 18341906224211763780
15775835 57 18187928442757736700
16945 1 18271256017984398158
20871998 184 17477218583423105830
21028194 46 18336828722448614404
21524375 3 18338796848367906436
2334 1 18048879894362098732
23559900 14 18340783611168388564
241688 4 17620474610303831147
2748010 2 18338245846918453143
4369600 1 17979648835360263958
5084963 1 18191303982046177240
528862 383 18335130943298451746
63268167 104 18335413526376711697
81228 2 17328307355638856096

> <PUBCHEM_SHAPE_MULTIPOLES>
255.8
3.73
2.4
1.11
0.73
0.17
0.03
1.36
-0.01
-1.02
-0.07
0.18
-0.25
-0.19

> <PUBCHEM_SHAPE_SELFOVERLAP>
502.782

> <PUBCHEM_SHAPE_VOLUME>
154.6

> <PUBCHEM_COORDINATE_TYPE>
2
5
10

$$$$
