112446
  -OEChem-11232108573D

 29 28  0     0  0  0  0  0  0999 V2000
   -3.1193    2.1698    0.3330 N   0  0  0  0  0  0  0  0  0  0  0  0
    0.7571   -2.1053   -0.2467 C   0  0  0  0  0  0  0  0  0  0  0  0
   -0.6771   -2.0279   -0.7867 C   0  0  0  0  0  0  0  0  0  0  0  0
    2.1845   -0.0285    0.2351 C   0  0  0  0  0  0  0  0  0  0  0  0
    1.5705   -0.8901   -0.5990 C   0  0  0  0  0  0  0  0  0  0  0  0
    2.9232    1.1700   -0.3256 C   0  0  0  0  0  0  0  0  0  0  0  0
   -1.5058   -0.9183   -0.1678 C   0  0  0  0  0  0  0  0  0  0  0  0
    2.1680   -0.1286    1.7355 C   0  0  0  0  0  0  0  0  0  0  0  0
    2.0320    2.3965   -0.4636 C   0  0  0  0  0  0  0  0  0  0  0  0
   -2.2218   -1.2815    1.1072 C   0  0  0  0  0  0  0  0  0  0  0  0
   -1.6522    0.3111   -0.6962 C   0  0  0  0  0  0  0  0  0  0  0  0
   -2.4590    1.3328   -0.1253 C   0  0  0  0  0  0  0  0  0  0  0  0
    1.2492   -2.9743   -0.7014 H   0  0  0  0  0  0  0  0  0  0  0  0
    0.7324   -2.3040    0.8273 H   0  0  0  0  0  0  0  0  0  0  0  0
   -0.6472   -1.8920   -1.8764 H   0  0  0  0  0  0  0  0  0  0  0  0
   -1.1794   -2.9900   -0.6257 H   0  0  0  0  0  0  0  0  0  0  0  0
    1.6537   -0.7038   -1.6696 H   0  0  0  0  0  0  0  0  0  0  0  0
    3.3415    0.9261   -1.3105 H   0  0  0  0  0  0  0  0  0  0  0  0
    3.7839    1.4057    0.3119 H   0  0  0  0  0  0  0  0  0  0  0  0
    1.5891   -0.9696    2.1199 H   0  0  0  0  0  0  0  0  0  0  0  0
    1.7381    0.7807    2.1686 H   0  0  0  0  0  0  0  0  0  0  0  0
    3.1903   -0.2373    2.1130 H   0  0  0  0  0  0  0  0  0  0  0  0
    1.1930    2.2031   -1.1403 H   0  0  0  0  0  0  0  0  0  0  0  0
    1.6249    2.7040    0.5051 H   0  0  0  0  0  0  0  0  0  0  0  0
    2.6059    3.2355   -0.8698 H   0  0  0  0  0  0  0  0  0  0  0  0
   -2.7980   -0.4720    1.5619 H   0  0  0  0  0  0  0  0  0  0  0  0
   -2.9172   -2.1069    0.9197 H   0  0  0  0  0  0  0  0  0  0  0  0
   -1.4963   -1.6136    1.8579 H   0  0  0  0  0  0  0  0  0  0  0  0
   -1.1396    0.5540   -1.6224 H   0  0  0  0  0  0  0  0  0  0  0  0
  1 12  3  0  0  0  0
  2  3  1  0  0  0  0
  2  5  1  0  0  0  0
  2 13  1  0  0  0  0
  2 14  1  0  0  0  0
  3  7  1  0  0  0  0
  3 15  1  0  0  0  0
  3 16  1  0  0  0  0
  4  5  2  3  0  0  0
  4  6  1  0  0  0  0
  4  8  1  0  0  0  0
  5 17  1  0  0  0  0
  6  9  1  0  0  0  0
  6 18  1  0  0  0  0
  6 19  1  0  0  0  0
  7 10  1  0  0  0  0
  7 11  2  3  0  0  0
  8 20  1  0  0  0  0
  8 21  1  0  0  0  0
  8 22  1  0  0  0  0
  9 23  1  0  0  0  0
  9 24  1  0  0  0  0
  9 25  1  0  0  0  0
 10 26  1  0  0  0  0
 10 27  1  0  0  0  0
 10 28  1  0  0  0  0
 11 12  1  0  0  0  0
 11 29  1  0  0  0  0
M  END
> <PUBCHEM_COMPOUND_CID>
112446

> <PUBCHEM_CONFORMER_RMSD>
0.6

> <PUBCHEM_CONFORMER_DIVERSEORDER>
1
14
20
58
16
54
21
7
57
6
4
62
45
29
18
17
48
8
47
52
35
5
59
44
43
23
12
13
56
15
55
31
30
19
50
49
60
22
24
36
39
34
51
41
53
63
61
2
3
26
28
40
33
37
11
38
46
25
42
9
10
27
32

> <PUBCHEM_MMFF94_PARTIAL_CHARGES>
13
1 -0.56
10 0.14
11 -0.09
12 0.49
17 0.15
2 0.14
29 0.15
3 0.14
4 -0.28
5 -0.29
6 0.14
7 -0.28
8 0.14

> <PUBCHEM_EFFECTIVE_ROTOR_COUNT>
4

> <PUBCHEM_PHARMACOPHORE_FEATURES>
5
1 1 acceptor
1 10 hydrophobe
1 8 hydrophobe
1 9 hydrophobe
4 2 3 5 7 hydrophobe

> <PUBCHEM_HEAVY_ATOM_COUNT>
12

> <PUBCHEM_ATOM_DEF_STEREO_COUNT>
0

> <PUBCHEM_ATOM_UDEF_STEREO_COUNT>
0

> <PUBCHEM_BOND_DEF_STEREO_COUNT>
0

> <PUBCHEM_BOND_UDEF_STEREO_COUNT>
2

> <PUBCHEM_ISOTOPIC_ATOM_COUNT>
0

> <PUBCHEM_COMPONENT_COUNT>
1

> <PUBCHEM_CACTVS_TAUTO_COUNT>
1

> <PUBCHEM_CONFORMER_ID>
0001B73E00000001

> <PUBCHEM_MMFF94_ENERGY>
9.1234

> <PUBCHEM_FEATURE_SELFOVERLAP>
25.379

> <PUBCHEM_SHAPE_FINGERPRINT>
100427 49 16971947974670544543
13618510 140 18411700971717142596
13764800 53 18410581686370730465
14026960 21 18410023138975188665
14251711 518 18047181140396680596
14648413 74 18337682905570862118
15279308 10 18118950632507801078
15775835 57 18050576436661549684
19973954 147 18410013247180196342
20304884 271 18410576188601861093
20511035 2 18200583692607425486
20671657 1 18339925892180110974
20828058 43 18261964053760576850
21130352 189 17977945683411755110
21524375 3 18339069389933863343
21947302 44 18196088846318212663
22959321 28 18190750931834111322
230 275 18270672052634717095
23419403 2 15898644821582541346
5084963 1 18059856233153681982
6333272 397 18336829693670385909
81228 2 17195153169074530830

> <PUBCHEM_SHAPE_MULTIPOLES>
241.97
4.78
2.67
1.14
0.06
0.71
-0.45
2.76
-0.67
0.69
0.4
-0.28
-0.25
-0.25

> <PUBCHEM_SHAPE_SELFOVERLAP>
453.326

> <PUBCHEM_SHAPE_VOLUME>
149.3

> <PUBCHEM_COORDINATE_TYPE>
2
5
10

$$$$
