112412
  -OEChem-11232109243D

 63 67  0     0  0  0  0  0  0999 V2000
    1.4755    1.6553   -0.8457 O   0  0  0  0  0  0  0  0  0  0  0  0
    2.5218   -0.8237   -0.0938 N   0  0  0  0  0  0  0  0  0  0  0  0
    3.0068   -2.0141    0.2681 N   0  0  0  0  0  0  0  0  0  0  0  0
    3.3681    0.1708   -0.3733 N   0  0  0  0  0  0  0  0  0  0  0  0
   -1.3162    2.1208   -1.0398 C   0  0  0  0  0  0  0  0  0  0  0  0
   -2.0119   -2.6216    0.3492 C   0  0  0  0  0  0  0  0  0  0  0  0
   -0.7429    0.8014   -0.6388 C   0  0  0  0  0  0  0  0  0  0  0  0
   -1.0890   -1.4940    0.0314 C   0  0  0  0  0  0  0  0  0  0  0  0
   -1.6059   -0.2541   -0.3443 C   0  0  0  0  0  0  0  0  0  0  0  0
   -0.9007    3.2711   -0.0646 C   0  0  0  0  0  0  0  0  0  0  0  0
   -3.5175   -2.2197    0.2045 C   0  0  0  0  0  0  0  0  0  0  0  0
    0.6374    0.6170   -0.5574 C   0  0  0  0  0  0  0  0  0  0  0  0
   -0.8837    2.4216   -2.5171 C   0  0  0  0  0  0  0  0  0  0  0  0
   -2.8884    2.1902   -1.0914 C   0  0  0  0  0  0  0  0  0  0  0  0
    0.2912   -1.6783    0.1129 C   0  0  0  0  0  0  0  0  0  0  0  0
   -1.8956   -3.2063    1.8075 C   0  0  0  0  0  0  0  0  0  0  0  0
   -1.6431   -3.8409   -0.5670 C   0  0  0  0  0  0  0  0  0  0  0  0
    1.1463   -0.6216   -0.1819 C   0  0  0  0  0  0  0  0  0  0  0  0
   -1.2643    3.1463    1.2400 C   0  0  0  0  0  0  0  0  0  0  0  0
   -0.2054    4.3152   -0.5901 C   0  0  0  0  0  0  0  0  0  0  0  0
   -4.0981   -2.4022   -1.0114 C   0  0  0  0  0  0  0  0  0  0  0  0
   -4.1376   -1.7164    1.3050 C   0  0  0  0  0  0  0  0  0  0  0  0
   -0.8940    4.1722    2.1094 C   0  0  0  0  0  0  0  0  0  0  0  0
    0.1651    5.3409    0.2794 C   0  0  0  0  0  0  0  0  0  0  0  0
   -5.4399   -2.0436   -1.1402 C   0  0  0  0  0  0  0  0  0  0  0  0
   -5.4795   -1.3582    1.1761 C   0  0  0  0  0  0  0  0  0  0  0  0
   -0.1792    5.2695    1.6292 C   0  0  0  0  0  0  0  0  0  0  0  0
   -6.1308   -1.5219   -0.0465 C   0  0  0  0  0  0  0  0  0  0  0  0
    4.3329   -1.8037    0.2301 C   0  0  0  0  0  0  0  0  0  0  0  0
    4.5631   -0.4105   -0.1787 C   0  0  0  0  0  0  0  0  0  0  0  0
    5.3912   -2.6873    0.5119 C   0  0  0  0  0  0  0  0  0  0  0  0
    5.8567    0.1271   -0.3142 C   0  0  0  0  0  0  0  0  0  0  0  0
    6.6725   -2.1236    0.3684 C   0  0  0  0  0  0  0  0  0  0  0  0
    6.8951   -0.7775   -0.0266 C   0  0  0  0  0  0  0  0  0  0  0  0
   -2.6698   -0.0953   -0.4136 H   0  0  0  0  0  0  0  0  0  0  0  0
   -1.3581    3.3316   -2.9060 H   0  0  0  0  0  0  0  0  0  0  0  0
    0.1959    2.5183   -2.6648 H   0  0  0  0  0  0  0  0  0  0  0  0
   -1.2056    1.6024   -3.1744 H   0  0  0  0  0  0  0  0  0  0  0  0
   -3.2256    3.1947   -1.3792 H   0  0  0  0  0  0  0  0  0  0  0  0
   -3.2966    1.4941   -1.8346 H   0  0  0  0  0  0  0  0  0  0  0  0
   -3.3593    1.9672   -0.1269 H   0  0  0  0  0  0  0  0  0  0  0  0
    0.6763   -2.6452    0.4230 H   0  0  0  0  0  0  0  0  0  0  0  0
   -2.6901   -3.9259    2.0395 H   0  0  0  0  0  0  0  0  0  0  0  0
   -0.9438   -3.7399    1.9297 H   0  0  0  0  0  0  0  0  0  0  0  0
   -1.8687   -2.4230    2.5732 H   0  0  0  0  0  0  0  0  0  0  0  0
   -2.3879   -4.6417   -0.4800 H   0  0  0  0  0  0  0  0  0  0  0  0
   -1.5744   -3.5555   -1.6236 H   0  0  0  0  0  0  0  0  0  0  0  0
   -0.6745   -4.2818   -0.3036 H   0  0  0  0  0  0  0  0  0  0  0  0
   -1.8143    2.2960    1.6275 H   0  0  0  0  0  0  0  0  0  0  0  0
    0.0913    4.4264   -1.6235 H   0  0  0  0  0  0  0  0  0  0  0  0
   -3.5845   -2.7832   -1.8847 H   0  0  0  0  0  0  0  0  0  0  0  0
   -3.6678   -1.5266    2.2603 H   0  0  0  0  0  0  0  0  0  0  0  0
    2.2866    1.3165   -1.2562 H   0  0  0  0  0  0  0  0  0  0  0  0
   -1.1608    4.1159    3.1607 H   0  0  0  0  0  0  0  0  0  0  0  0
    0.7223    6.1956   -0.0935 H   0  0  0  0  0  0  0  0  0  0  0  0
   -5.9456   -2.1650   -2.0938 H   0  0  0  0  0  0  0  0  0  0  0  0
   -6.0150   -0.9411    2.0241 H   0  0  0  0  0  0  0  0  0  0  0  0
    0.1098    6.0679    2.3063 H   0  0  0  0  0  0  0  0  0  0  0  0
   -7.1744   -1.2390   -0.1480 H   0  0  0  0  0  0  0  0  0  0  0  0
    5.2434   -3.7161    0.8143 H   0  0  0  0  0  0  0  0  0  0  0  0
    6.0478    1.1497   -0.6139 H   0  0  0  0  0  0  0  0  0  0  0  0
    7.5400   -2.7506    0.5705 H   0  0  0  0  0  0  0  0  0  0  0  0
    7.9238   -0.4295   -0.1107 H   0  0  0  0  0  0  0  0  0  0  0  0
  1 12  1  0  0  0  0
  1 53  1  0  0  0  0
  2  3  1  0  0  0  0
  2  4  1  0  0  0  0
  2 18  1  0  0  0  0
  3 29  2  0  0  0  0
  4 30  2  0  0  0  0
  5  7  1  0  0  0  0
  5 10  1  0  0  0  0
  5 13  1  0  0  0  0
  5 14  1  0  0  0  0
  6  8  1  0  0  0  0
  6 11  1  0  0  0  0
  6 16  1  0  0  0  0
  6 17  1  0  0  0  0
  7  9  1  0  0  0  0
  7 12  2  0  0  0  0
  8  9  2  0  0  0  0
  8 15  1  0  0  0  0
  9 35  1  0  0  0  0
 10 19  2  0  0  0  0
 10 20  1  0  0  0  0
 11 21  2  0  0  0  0
 11 22  1  0  0  0  0
 12 18  1  0  0  0  0
 13 36  1  0  0  0  0
 13 37  1  0  0  0  0
 13 38  1  0  0  0  0
 14 39  1  0  0  0  0
 14 40  1  0  0  0  0
 14 41  1  0  0  0  0
 15 18  2  0  0  0  0
 15 42  1  0  0  0  0
 16 43  1  0  0  0  0
 16 44  1  0  0  0  0
 16 45  1  0  0  0  0
 17 46  1  0  0  0  0
 17 47  1  0  0  0  0
 17 48  1  0  0  0  0
 19 23  1  0  0  0  0
 19 49  1  0  0  0  0
 20 24  2  0  0  0  0
 20 50  1  0  0  0  0
 21 25  1  0  0  0  0
 21 51  1  0  0  0  0
 22 26  2  0  0  0  0
 22 52  1  0  0  0  0
 23 27  2  0  0  0  0
 23 54  1  0  0  0  0
 24 27  1  0  0  0  0
 24 55  1  0  0  0  0
 25 28  2  0  0  0  0
 25 56  1  0  0  0  0
 26 28  1  0  0  0  0
 26 57  1  0  0  0  0
 27 58  1  0  0  0  0
 28 59  1  0  0  0  0
 29 30  1  0  0  0  0
 29 31  1  0  0  0  0
 30 32  1  0  0  0  0
 31 33  2  0  0  0  0
 31 60  1  0  0  0  0
 32 34  2  0  0  0  0
 32 61  1  0  0  0  0
 33 34  1  0  0  0  0
 33 62  1  0  0  0  0
 34 63  1  0  0  0  0
M  END
> <PUBCHEM_COMPOUND_CID>
112412

> <PUBCHEM_CONFORMER_RMSD>
0.8

> <PUBCHEM_CONFORMER_DIVERSEORDER>
5
24
25
18
17
27
16
9
12
23
20
15
14
30
2
13
28
26
22
10
11
29
6
4
19
21
3
8
7
1

> <PUBCHEM_MMFF94_PARTIAL_CHARGES>
47
1 -0.53
10 -0.14
11 -0.14
12 0.08
15 -0.15
18 -0.02
19 -0.15
2 0.86
20 -0.15
21 -0.15
22 -0.15
23 -0.15
24 -0.15
25 -0.15
26 -0.15
27 -0.15
28 -0.15
29 0.29
3 -0.71
30 0.29
31 -0.15
32 -0.15
33 -0.15
34 -0.15
35 0.15
4 -0.71
42 0.15
49 0.15
5 0.29
50 0.15
51 0.15
52 0.15
53 0.45
54 0.15
55 0.15
56 0.15
57 0.15
58 0.15
59 0.15
6 0.29
60 0.15
61 0.15
62 0.15
63 0.15
7 -0.14
8 -0.14
9 -0.15

> <PUBCHEM_EFFECTIVE_ROTOR_COUNT>
5

> <PUBCHEM_PHARMACOPHORE_FEATURES>
10
1 1 donor
1 3 acceptor
1 4 acceptor
3 5 13 14 hydrophobe
3 6 16 17 hydrophobe
5 2 3 4 29 30 rings
6 10 19 20 23 24 27 rings
6 11 21 22 25 26 28 rings
6 29 30 31 32 33 34 rings
6 7 8 9 12 15 18 rings

> <PUBCHEM_HEAVY_ATOM_COUNT>
34

> <PUBCHEM_ATOM_DEF_STEREO_COUNT>
0

> <PUBCHEM_ATOM_UDEF_STEREO_COUNT>
0

> <PUBCHEM_BOND_DEF_STEREO_COUNT>
0

> <PUBCHEM_BOND_UDEF_STEREO_COUNT>
0

> <PUBCHEM_ISOTOPIC_ATOM_COUNT>
0

> <PUBCHEM_COMPONENT_COUNT>
1

> <PUBCHEM_CACTVS_TAUTO_COUNT>
3

> <PUBCHEM_CONFORMER_ID>
0001B71C00000005

> <PUBCHEM_MMFF94_ENERGY>
156.1901

> <PUBCHEM_FEATURE_SELFOVERLAP>
50.928

> <PUBCHEM_SHAPE_FINGERPRINT>
10411042 1 18410290337027173743
1100329 8 18410859833059698469
11331351 85 18130802156690357815
11456790 92 18189352281237380147
12160290 23 18045527242885267975
12516196 113 18339079392728624938
12760667 363 18408040718956933831
12788726 201 18261101946540310810
13004483 165 18410289224794265226
13140716 1 18338238167817777077
14068700 675 18411698794152431372
14118638 360 18259987038499289354
14394314 77 18410579461836121265
14713325 29 18197779899538852026
14955137 171 18263654012255887571
15042514 8 18335984164353196036
15131766 46 15767781356446692242
15276724 80 18335138709079637534
15347590 135 18263067947178045098
15351339 4 17895740812673367387
15439362 3 17978223087408328505
15927050 60 17690564078734547694
16087824 20 18336826378388390861
17980427 23 17845670260435861619
17980427 26 17551788548640774165
19301679 30 18339368444006936642
19311894 1 17977102358657668362
20775438 99 17188363659267091783
21120745 212 18339943557755704516
21236236 1 18335700503328237671
21304253 13 18412829118445320625
21796203 349 18048914975997669683
22889206 1 17338423923641032960
23559900 14 18123745615622981643
23845131 108 17617946828951401313
283562 15 18263078834045063347
3418910 222 18334864948719089812
3552219 110 18188792620511560068
392239 28 18270131118979606953
4015057 19 18193272116703636243
508180 173 18265027229722614471
5104073 3 18336818677591215706
5171179 24 18269256024151984157
5385378 56 17618792796391152603
6004065 56 18268141144815160071
79837 15 17977951181096273840

> <PUBCHEM_SHAPE_MULTIPOLES>
678.89
12.45
6.97
1.49
15.42
10.71
0.08
-15.86
0.52
-3.03
2.34
-1.33
1.13
-0.23

> <PUBCHEM_SHAPE_SELFOVERLAP>
1515.512

> <PUBCHEM_SHAPE_VOLUME>
361.3

> <PUBCHEM_COORDINATE_TYPE>
2
5
10

$$$$
