112491
  -OEChem-11232108543D

 32 31  0     1  0  0  0  0  0999 V2000
    2.3938   -1.1810   -0.0041 O   0  0  0  0  0  0  0  0  0  0  0  0
   -3.1359   -1.7958   -0.7719 O   0  0  0  0  0  0  0  0  0  0  0  0
    2.4028    0.2245   -0.2623 C   0  0  0  0  0  0  0  0  0  0  0  0
    1.1406    0.8675    0.3524 C   0  0  0  0  0  0  0  0  0  0  0  0
   -0.1828    0.3179   -0.1968 C   0  0  0  0  0  0  0  0  0  0  0  0
   -1.4232    0.9791    0.4229 C   0  0  0  0  0  0  0  0  0  0  0  0
   -2.7667    0.5071   -0.1488 C   0  0  2  0  0  0  0  0  0  0  0  0
    2.4777    0.4120   -1.7783 C   0  0  0  0  0  0  0  0  0  0  0  0
    3.6574    0.8144    0.3907 C   0  0  0  0  0  0  0  0  0  0  0  0
   -3.9240    1.2701    0.4907 C   0  0  0  0  0  0  0  0  0  0  0  0
   -2.9650   -0.9684    0.1183 C   0  0  0  0  0  0  0  0  0  0  0  0
    2.3253   -1.4475    1.3873 C   0  0  0  0  0  0  0  0  0  0  0  0
    1.1327    0.8060    1.4463 H   0  0  0  0  0  0  0  0  0  0  0  0
    1.1699    1.9449    0.1355 H   0  0  0  0  0  0  0  0  0  0  0  0
   -0.2289   -0.7638   -0.0297 H   0  0  0  0  0  0  0  0  0  0  0  0
   -0.2261    0.4742   -1.2804 H   0  0  0  0  0  0  0  0  0  0  0  0
   -1.4030    0.8017    1.5064 H   0  0  0  0  0  0  0  0  0  0  0  0
   -1.3435    2.0650    0.2837 H   0  0  0  0  0  0  0  0  0  0  0  0
   -2.7841    0.6664   -1.2333 H   0  0  0  0  0  0  0  0  0  0  0  0
    3.4243    0.0190   -2.1682 H   0  0  0  0  0  0  0  0  0  0  0  0
    2.4030    1.4671   -2.0605 H   0  0  0  0  0  0  0  0  0  0  0  0
    1.6902   -0.1484   -2.2930 H   0  0  0  0  0  0  0  0  0  0  0  0
    3.5615    0.9358    1.4747 H   0  0  0  0  0  0  0  0  0  0  0  0
    3.8636    1.8158   -0.0056 H   0  0  0  0  0  0  0  0  0  0  0  0
    4.5373    0.1882    0.2037 H   0  0  0  0  0  0  0  0  0  0  0  0
   -3.8426    2.3431    0.2890 H   0  0  0  0  0  0  0  0  0  0  0  0
   -4.8842    0.9226    0.0935 H   0  0  0  0  0  0  0  0  0  0  0  0
   -3.9473    1.1268    1.5769 H   0  0  0  0  0  0  0  0  0  0  0  0
   -2.9526   -1.2751    1.1789 H   0  0  0  0  0  0  0  0  0  0  0  0
    1.3538   -1.2031    1.8231 H   0  0  0  0  0  0  0  0  0  0  0  0
    3.1462   -1.0230    1.9680 H   0  0  0  0  0  0  0  0  0  0  0  0
    2.4229   -2.5338    1.4951 H   0  0  0  0  0  0  0  0  0  0  0  0
  1  3  1  0  0  0  0
  1 12  1  0  0  0  0
  2 11  2  0  0  0  0
  3  4  1  0  0  0  0
  3  8  1  0  0  0  0
  3  9  1  0  0  0  0
  4  5  1  0  0  0  0
  4 13  1  0  0  0  0
  4 14  1  0  0  0  0
  5  6  1  0  0  0  0
  5 15  1  0  0  0  0
  5 16  1  0  0  0  0
  6  7  1  0  0  0  0
  6 17  1  0  0  0  0
  6 18  1  0  0  0  0
  7 10  1  0  0  0  0
  7 11  1  0  0  0  0
  7 19  1  0  0  0  0
  8 20  1  0  0  0  0
  8 21  1  0  0  0  0
  8 22  1  0  0  0  0
  9 23  1  0  0  0  0
  9 24  1  0  0  0  0
  9 25  1  0  0  0  0
 10 26  1  0  0  0  0
 10 27  1  0  0  0  0
 10 28  1  0  0  0  0
 11 29  1  0  0  0  0
 12 30  1  0  0  0  0
 12 31  1  0  0  0  0
 12 32  1  0  0  0  0
M  END
> <PUBCHEM_COMPOUND_CID>
112491

> <PUBCHEM_CONFORMER_RMSD>
0.6

> <PUBCHEM_CONFORMER_DIVERSEORDER>
19
109
60
80
105
68
72
104
92
50
108
74
73
38
91
99
34
49
43
55
63
8
32
97
66
89
102
31
83
5
103
85
96
21
57
18
59
24
53
100
93
42
65
70
6
46
94
67
7
29
101
69
95
90
39
48
11
84
86
107
17
13
35
98
25
71
27
47
37
41
110
81
16
88
12
78
2
56
45
4
58
10
76
79
30
87
61
14
62
15
44
77
64
52
54
23
9
28
75
82
33
51
22
1
106
40
26
36
3
20

> <PUBCHEM_MMFF94_PARTIAL_CHARGES>
7
1 -0.56
11 0.45
12 0.28
2 -0.57
29 0.06
3 0.28
7 0.06

> <PUBCHEM_EFFECTIVE_ROTOR_COUNT>
6

> <PUBCHEM_PHARMACOPHORE_FEATURES>
5
1 1 acceptor
1 10 hydrophobe
1 2 acceptor
3 3 8 9 hydrophobe
4 4 5 6 7 hydrophobe

> <PUBCHEM_HEAVY_ATOM_COUNT>
12

> <PUBCHEM_ATOM_DEF_STEREO_COUNT>
0

> <PUBCHEM_ATOM_UDEF_STEREO_COUNT>
1

> <PUBCHEM_BOND_DEF_STEREO_COUNT>
0

> <PUBCHEM_BOND_UDEF_STEREO_COUNT>
0

> <PUBCHEM_ISOTOPIC_ATOM_COUNT>
0

> <PUBCHEM_COMPONENT_COUNT>
1

> <PUBCHEM_CACTVS_TAUTO_COUNT>
2

> <PUBCHEM_CONFORMER_ID>
0001B76B00000013

> <PUBCHEM_MMFF94_ENERGY>
29.758

> <PUBCHEM_FEATURE_SELFOVERLAP>
25.373

> <PUBCHEM_SHAPE_FINGERPRINT>
10922523 26 17605269584447095501
12500047 106 18343295947091031817
12932764 1 18408045100065908877
13296908 3 17703796924412125093
14144814 61 18342178834634496929
14252887 29 17703520989906257366
14325111 11 18413108359596068569
15669948 3 18342738516249466853
15775835 57 18408889524774137529
18186145 218 14923947842456956741
18522853 266 18411420570729701613
19107657 162 17560807649307271047
19786989 88 16226343597899990182
20279233 1 17560805420124409205
20645477 70 18114455648421685939
20715346 28 16773797004358942213
22485316 2 18410289207503353361
23402539 116 17313095354845012836
3248919 1 17385446539545532121
581208 293 17894910733028175872
81228 2 16915674574661576129

> <PUBCHEM_SHAPE_MULTIPOLES>
235.22
7.34
1.55
1.15
3.06
0.63
-0.29
-0.16
0.19
0.45
0.16
-0.74
0.1
-1.05

> <PUBCHEM_SHAPE_SELFOVERLAP>
435.823

> <PUBCHEM_SHAPE_VOLUME>
149.5

> <PUBCHEM_COORDINATE_TYPE>
2
5
10

$$$$
