11253924
  -OEChem-11232109083D

 41 41  0     0  0  0  0  0  0999 V2000
   -0.2969   -1.4974    0.2591 O   0  0  0  0  0  0  0  0  0  0  0  0
   -0.8803   -0.3191    2.1486 O   0  0  0  0  0  0  0  0  0  0  0  0
    3.6208   -0.3117    0.5539 C   0  0  0  0  0  0  0  0  0  0  0  0
    3.7913    1.0580   -0.1161 C   0  0  0  0  0  0  0  0  0  0  0  0
    3.1071   -1.3879   -0.3796 C   0  0  0  0  0  0  0  0  0  0  0  0
    2.5046    1.5862   -0.6875 C   0  0  0  0  0  0  0  0  0  0  0  0
    1.9541   -2.0649   -0.2135 C   0  0  0  0  0  0  0  0  0  0  0  0
    4.0075   -1.7076   -1.5455 C   0  0  0  0  0  0  0  0  0  0  0  0
    1.5311    2.2668   -0.0535 C   0  0  0  0  0  0  0  0  0  0  0  0
    0.9297   -1.8876    0.8616 C   0  0  0  0  0  0  0  0  0  0  0  0
    0.3013    2.7083   -0.8016 C   0  0  0  0  0  0  0  0  0  0  0  0
    1.5505    2.6654    1.3946 C   0  0  0  0  0  0  0  0  0  0  0  0
   -2.3549   -0.3757    0.2758 C   0  0  0  0  0  0  0  0  0  0  0  0
   -1.1117   -0.7107    1.0153 C   0  0  0  0  0  0  0  0  0  0  0  0
   -3.5173   -0.1624    0.9880 C   0  0  0  0  0  0  0  0  0  0  0  0
   -2.3091   -0.2875   -1.1005 C   0  0  0  0  0  0  0  0  0  0  0  0
   -4.6853    0.1526    0.2935 C   0  0  0  0  0  0  0  0  0  0  0  0
   -3.4771    0.0275   -1.7949 C   0  0  0  0  0  0  0  0  0  0  0  0
   -4.6651    0.2476   -1.0978 C   0  0  0  0  0  0  0  0  0  0  0  0
    4.5986   -0.6330    0.9365 H   0  0  0  0  0  0  0  0  0  0  0  0
    2.9941   -0.1944    1.4416 H   0  0  0  0  0  0  0  0  0  0  0  0
    4.5402    1.0103   -0.9158 H   0  0  0  0  0  0  0  0  0  0  0  0
    4.1986    1.7670    0.6144 H   0  0  0  0  0  0  0  0  0  0  0  0
    2.3629    1.3605   -1.7440 H   0  0  0  0  0  0  0  0  0  0  0  0
    1.7010   -2.8296   -0.9471 H   0  0  0  0  0  0  0  0  0  0  0  0
    5.0231   -1.9192   -1.1953 H   0  0  0  0  0  0  0  0  0  0  0  0
    4.0463   -0.8707   -2.2492 H   0  0  0  0  0  0  0  0  0  0  0  0
    3.6665   -2.5870   -2.1025 H   0  0  0  0  0  0  0  0  0  0  0  0
    1.2469   -1.1800    1.6295 H   0  0  0  0  0  0  0  0  0  0  0  0
    0.7714   -2.8540    1.3534 H   0  0  0  0  0  0  0  0  0  0  0  0
    0.2386    3.8014   -0.8132 H   0  0  0  0  0  0  0  0  0  0  0  0
    0.2961    2.3621   -1.8404 H   0  0  0  0  0  0  0  0  0  0  0  0
   -0.5985    2.3160   -0.3176 H   0  0  0  0  0  0  0  0  0  0  0  0
    0.6785    2.2514    1.9115 H   0  0  0  0  0  0  0  0  0  0  0  0
    2.4396    2.3115    1.9229 H   0  0  0  0  0  0  0  0  0  0  0  0
    1.5218    3.7560    1.4868 H   0  0  0  0  0  0  0  0  0  0  0  0
   -3.5462   -0.2366    2.0710 H   0  0  0  0  0  0  0  0  0  0  0  0
   -1.3941   -0.4394   -1.6651 H   0  0  0  0  0  0  0  0  0  0  0  0
   -5.6106    0.3235    0.8361 H   0  0  0  0  0  0  0  0  0  0  0  0
   -3.4610    0.1053   -2.8781 H   0  0  0  0  0  0  0  0  0  0  0  0
   -5.5743    0.4937   -1.6385 H   0  0  0  0  0  0  0  0  0  0  0  0
  1 10  1  0  0  0  0
  1 14  1  0  0  0  0
  2 14  2  0  0  0  0
  3  4  1  0  0  0  0
  3  5  1  0  0  0  0
  3 20  1  0  0  0  0
  3 21  1  0  0  0  0
  4  6  1  0  0  0  0
  4 22  1  0  0  0  0
  4 23  1  0  0  0  0
  5  7  2  0  0  0  0
  5  8  1  0  0  0  0
  6  9  2  0  0  0  0
  6 24  1  0  0  0  0
  7 10  1  0  0  0  0
  7 25  1  0  0  0  0
  8 26  1  0  0  0  0
  8 27  1  0  0  0  0
  8 28  1  0  0  0  0
  9 11  1  0  0  0  0
  9 12  1  0  0  0  0
 10 29  1  0  0  0  0
 10 30  1  0  0  0  0
 11 31  1  0  0  0  0
 11 32  1  0  0  0  0
 11 33  1  0  0  0  0
 12 34  1  0  0  0  0
 12 35  1  0  0  0  0
 12 36  1  0  0  0  0
 13 14  1  0  0  0  0
 13 15  2  0  0  0  0
 13 16  1  0  0  0  0
 15 17  1  0  0  0  0
 15 37  1  0  0  0  0
 16 18  2  0  0  0  0
 16 38  1  0  0  0  0
 17 19  2  0  0  0  0
 17 39  1  0  0  0  0
 18 19  1  0  0  0  0
 18 40  1  0  0  0  0
 19 41  1  0  0  0  0
M  END
> <PUBCHEM_COMPOUND_CID>
11253924

> <PUBCHEM_CONFORMER_RMSD>
1

> <PUBCHEM_CONFORMER_DIVERSEORDER>
6
221
297
35
84
521
28
318
437
211
65
507
20
169
141
512
75
365
269
198
45
205
59
106
303
25
235
68
413
60
276
4
433
273
382
372
163
451
3
56
90
63
23
491
294
301
29
274
262
212
363
322
315
327
121
71
15
337
22
508
471
519
47
2
450
300
392
513
515
147
43
286
16
468
249
1
46
9
164
231
209
17
178
358
10
518
33
457
12
57
114
258
524
5
61
8
111
429
128
98
51
170
21
204

> <PUBCHEM_MMFF94_PARTIAL_CHARGES>
26
1 -0.43
10 0.42
11 0.14
12 0.14
13 0.09
14 0.63
15 -0.15
16 -0.15
17 -0.15
18 -0.15
19 -0.15
2 -0.57
24 0.15
25 0.15
3 0.14
37 0.15
38 0.15
39 0.15
4 0.14
40 0.15
41 0.15
5 -0.28
6 -0.29
7 -0.29
8 0.14
9 -0.28

> <PUBCHEM_EFFECTIVE_ROTOR_COUNT>
7

> <PUBCHEM_PHARMACOPHORE_FEATURES>
5
1 2 acceptor
1 8 hydrophobe
3 9 11 12 hydrophobe
4 3 4 5 6 hydrophobe
6 13 15 16 17 18 19 rings

> <PUBCHEM_HEAVY_ATOM_COUNT>
19

> <PUBCHEM_ATOM_DEF_STEREO_COUNT>
0

> <PUBCHEM_ATOM_UDEF_STEREO_COUNT>
0

> <PUBCHEM_BOND_DEF_STEREO_COUNT>
1

> <PUBCHEM_BOND_UDEF_STEREO_COUNT>
0

> <PUBCHEM_ISOTOPIC_ATOM_COUNT>
0

> <PUBCHEM_COMPONENT_COUNT>
1

> <PUBCHEM_CACTVS_TAUTO_COUNT>
1

> <PUBCHEM_CONFORMER_ID>
00ABB8A400000006

> <PUBCHEM_MMFF94_ENERGY>
34.1101

> <PUBCHEM_FEATURE_SELFOVERLAP>
25.391

> <PUBCHEM_SHAPE_FINGERPRINT>
104564 63 18193848037452581364
12596599 1 18130794459819261638
13402501 40 18187078477340905084
14251739 40 18060698398788150095
14251745 187 18260537901354313284
14251757 17 18040989592783821229
14957384 54 13768188476996164751
15081414 286 18410583907011838324
15210252 30 17676496008072342172
15848702 151 18272089375031786855
17357779 13 18338242557469129878
18186145 218 18408325475430882027
18219364 16 18188502370499730986
18785283 64 17897463884959333813
192875 21 18131354111337701360
20606313 2 18409167718707200362
21639500 275 18340485668015452938
221357 26 18335979766707767725
22289505 5 18335978653931286934
23227448 37 18336545044275481191
23559900 14 16298945325608688331
238 59 18268709596388831924
3060560 45 18342735191840018966
3323516 105 18259985985440361543
3524813 1 17822287968185430566
474 4 18410853304091664939
574716 61 18130778001799508319
5939293 188 18336543927989743608

> <PUBCHEM_SHAPE_MULTIPOLES>
379.27
8.74
2.7
1.57
5.31
1.48
-0.06
-1.09
2.55
-3.2
-0.02
0.63
-0.03
0.77

> <PUBCHEM_SHAPE_SELFOVERLAP>
763.507

> <PUBCHEM_SHAPE_VOLUME>
222.8

> <PUBCHEM_COORDINATE_TYPE>
2
5
10

$$$$
