11264039
  -OEChem-11232109243D

 36 36  0     1  0  0  0  0  0999 V2000
   -3.3319    1.2288    0.8916 O   0  0  0  0  0  0  0  0  0  0  0  0
    1.7919    0.9460   -0.2923 C   0  0  0  0  0  0  0  0  0  0  0  0
    0.5237    0.1024   -0.6579 C   0  0  1  0  0  0  0  0  0  0  0  0
    2.2229    0.6842    1.1753 C   0  0  0  0  0  0  0  0  0  0  0  0
    2.3900   -0.8015    1.5060 C   0  0  0  0  0  0  0  0  0  0  0  0
    0.7255   -1.3571   -0.2794 C   0  0  0  0  0  0  0  0  0  0  0  0
   -0.7806    0.6138   -0.0266 C   0  0  0  0  0  0  0  0  0  0  0  0
    1.1524   -1.6184    1.1420 C   0  0  0  0  0  0  0  0  0  0  0  0
    1.5343    2.4571   -0.4659 C   0  0  0  0  0  0  0  0  0  0  0  0
    2.9517    0.5749   -1.2493 C   0  0  0  0  0  0  0  0  0  0  0  0
   -1.9676   -0.2179   -0.4841 C   0  0  0  0  0  0  0  0  0  0  0  0
    0.5606   -2.3527   -1.1641 C   0  0  0  0  0  0  0  0  0  0  0  0
   -3.2689    0.2612    0.1348 C   0  0  0  0  0  0  0  0  0  0  0  0
   -4.5041   -0.5209   -0.2301 C   0  0  0  0  0  0  0  0  0  0  0  0
    0.3934    0.1744   -1.7482 H   0  0  0  0  0  0  0  0  0  0  0  0
    1.4779    1.1093    1.8603 H   0  0  0  0  0  0  0  0  0  0  0  0
    3.1649    1.2045    1.3908 H   0  0  0  0  0  0  0  0  0  0  0  0
    2.5957   -0.9127    2.5772 H   0  0  0  0  0  0  0  0  0  0  0  0
    3.2656   -1.2031    0.9821 H   0  0  0  0  0  0  0  0  0  0  0  0
   -0.9627    1.6516   -0.3288 H   0  0  0  0  0  0  0  0  0  0  0  0
   -0.7213    0.6180    1.0682 H   0  0  0  0  0  0  0  0  0  0  0  0
    0.3296   -1.3633    1.8203 H   0  0  0  0  0  0  0  0  0  0  0  0
    1.3671   -2.6815    1.3044 H   0  0  0  0  0  0  0  0  0  0  0  0
    0.8249    2.8403    0.2750 H   0  0  0  0  0  0  0  0  0  0  0  0
    1.1406    2.6788   -1.4641 H   0  0  0  0  0  0  0  0  0  0  0  0
    2.4606    3.0300   -0.3402 H   0  0  0  0  0  0  0  0  0  0  0  0
    3.8618    1.1321   -0.9990 H   0  0  0  0  0  0  0  0  0  0  0  0
    2.6929    0.8158   -2.2870 H   0  0  0  0  0  0  0  0  0  0  0  0
    3.2016   -0.4897   -1.2155 H   0  0  0  0  0  0  0  0  0  0  0  0
   -2.0735   -0.1678   -1.5734 H   0  0  0  0  0  0  0  0  0  0  0  0
   -1.8651   -1.2654   -0.1850 H   0  0  0  0  0  0  0  0  0  0  0  0
    0.2633   -2.1538   -2.1882 H   0  0  0  0  0  0  0  0  0  0  0  0
    0.7177   -3.3887   -0.8835 H   0  0  0  0  0  0  0  0  0  0  0  0
   -4.3946   -1.5556    0.1037 H   0  0  0  0  0  0  0  0  0  0  0  0
   -4.6529   -0.4866   -1.3121 H   0  0  0  0  0  0  0  0  0  0  0  0
   -5.3771   -0.0816    0.2603 H   0  0  0  0  0  0  0  0  0  0  0  0
  1 13  2  0  0  0  0
  2  3  1  0  0  0  0
  2  4  1  0  0  0  0
  2  9  1  0  0  0  0
  2 10  1  0  0  0  0
  3  6  1  0  0  0  0
  3  7  1  0  0  0  0
  3 15  1  0  0  0  0
  4  5  1  0  0  0  0
  4 16  1  0  0  0  0
  4 17  1  0  0  0  0
  5  8  1  0  0  0  0
  5 18  1  0  0  0  0
  5 19  1  0  0  0  0
  6  8  1  0  0  0  0
  6 12  2  0  0  0  0
  7 11  1  0  0  0  0
  7 20  1  0  0  0  0
  7 21  1  0  0  0  0
  8 22  1  0  0  0  0
  8 23  1  0  0  0  0
  9 24  1  0  0  0  0
  9 25  1  0  0  0  0
  9 26  1  0  0  0  0
 10 27  1  0  0  0  0
 10 28  1  0  0  0  0
 10 29  1  0  0  0  0
 11 13  1  0  0  0  0
 11 30  1  0  0  0  0
 11 31  1  0  0  0  0
 12 32  1  0  0  0  0
 12 33  1  0  0  0  0
 13 14  1  0  0  0  0
 14 34  1  0  0  0  0
 14 35  1  0  0  0  0
 14 36  1  0  0  0  0
M  END
> <PUBCHEM_COMPOUND_CID>
11264039

> <PUBCHEM_CONFORMER_RMSD>
0.6

> <PUBCHEM_CONFORMER_DIVERSEORDER>
1
9
10
5
18
2
16
11
4
8
6
19
20
3
7
21
12
14
15
13
17

> <PUBCHEM_MMFF94_PARTIAL_CHARGES>
10
1 -0.57
11 0.06
12 -0.3
13 0.45
14 0.06
3 0.14
32 0.15
33 0.15
6 -0.28
8 0.14

> <PUBCHEM_EFFECTIVE_ROTOR_COUNT>
4

> <PUBCHEM_PHARMACOPHORE_FEATURES>
3
1 1 acceptor
3 2 9 10 hydrophobe
6 2 3 4 5 6 8 rings

> <PUBCHEM_HEAVY_ATOM_COUNT>
14

> <PUBCHEM_ATOM_DEF_STEREO_COUNT>
1

> <PUBCHEM_ATOM_UDEF_STEREO_COUNT>
0

> <PUBCHEM_BOND_DEF_STEREO_COUNT>
0

> <PUBCHEM_BOND_UDEF_STEREO_COUNT>
0

> <PUBCHEM_ISOTOPIC_ATOM_COUNT>
0

> <PUBCHEM_COMPONENT_COUNT>
1

> <PUBCHEM_CACTVS_TAUTO_COUNT>
3

> <PUBCHEM_CONFORMER_ID>
00ABE02700000001

> <PUBCHEM_MMFF94_ENERGY>
27.9829

> <PUBCHEM_FEATURE_SELFOVERLAP>
15.223

> <PUBCHEM_SHAPE_FINGERPRINT>
10980938 120 18410859841353701333
12251169 10 18334283284458444971
12326174 3 18187937122807306166
12423570 1 17333399164307294566
12532896 13 17827080920239710020
12696612 119 18335698291430304761
12932764 1 18186238437746260789
13380536 305 18339085990051105724
14144814 61 18412544293378431193
14817 1 9072279846622361514
15775835 57 18261673795602204252
16945 1 18113886178681204124
17357990 137 18341040917329824332
20279233 1 16370448856475674841
20559304 39 18413106134950786817
20645477 70 17385996252942653163
20708731 107 18200603488127445750
21501502 16 17896316926648471669
21524375 3 18191873537649107820
21730867 7 16877664569252454881
230 275 17346589751506994497
23558518 356 17325488203657203100
276578 36 18114743832316433544
298252 57 18267601267546521374
3060560 45 18413393150150226437
3248919 1 18341328903893726039
7364860 26 17917433051622852295
81228 2 17181658901293902060
81539 233 17458350779211930014
9999458 23 16805893999616064566

> <PUBCHEM_SHAPE_MULTIPOLES>
282.24
5.77
2.08
1.3
8.13
0.15
0.17
-1.09
0.54
-1.11
-0.32
-0.9
0.32
-0.7

> <PUBCHEM_SHAPE_SELFOVERLAP>
555.71

> <PUBCHEM_SHAPE_VOLUME>
168.9

> <PUBCHEM_COORDINATE_TYPE>
2
5
10

$$$$
