11264633
  -OEChem-11232109473D

 38 39  0     1  0  0  0  0  0999 V2000
   -0.3924   -0.6187   -1.0263 O   0  0  0  0  0  0  0  0  0  0  0  0
   -0.9996   -0.3935    1.1935 O   0  0  0  0  0  0  0  0  0  0  0  0
   -3.0880   -1.3151    1.0521 O   0  0  0  0  0  0  0  0  0  0  0  0
    0.6142    1.1705    0.2760 C   0  0  1  0  0  0  0  0  0  0  0  0
    0.0835   -0.2783    0.2753 C   0  0  2  0  0  0  0  0  0  0  0  0
    1.1870   -1.2642    0.6929 C   0  0  0  0  0  0  0  0  0  0  0  0
    1.8725    1.3010   -0.5956 C   0  0  0  0  0  0  0  0  0  0  0  0
    2.4433   -1.1338   -0.1793 C   0  0  1  0  0  0  0  0  0  0  0  0
    2.9568    0.3108   -0.1753 C   0  0  0  0  0  0  0  0  0  0  0  0
   -0.4444    2.1782   -0.1870 C   0  0  0  0  0  0  0  0  0  0  0  0
    3.5323   -2.0929    0.2987 C   0  0  0  0  0  0  0  0  0  0  0  0
   -1.5621   -1.4073   -0.8357 C   0  0  1  0  0  0  0  0  0  0  0  0
   -1.7129    2.0361    0.6472 C   0  0  0  0  0  0  0  0  0  0  0  0
    0.1030    3.5990   -0.1035 C   0  0  0  0  0  0  0  0  0  0  0  0
   -2.0054   -1.0497    0.5536 C   0  0  0  0  0  0  0  0  0  0  0  0
   -2.5878   -1.0421   -1.8865 C   0  0  0  0  0  0  0  0  0  0  0  0
    0.8899    1.4218    1.3113 H   0  0  0  0  0  0  0  0  0  0  0  0
    0.8106   -2.2934    0.6294 H   0  0  0  0  0  0  0  0  0  0  0  0
    1.4397   -1.1010    1.7492 H   0  0  0  0  0  0  0  0  0  0  0  0
    2.3124    2.2998   -0.5147 H   0  0  0  0  0  0  0  0  0  0  0  0
    1.6238    1.1430   -1.6525 H   0  0  0  0  0  0  0  0  0  0  0  0
    2.1854   -1.4081   -1.2107 H   0  0  0  0  0  0  0  0  0  0  0  0
    3.8130    0.4038   -0.8543 H   0  0  0  0  0  0  0  0  0  0  0  0
    3.3178    0.5758    0.8269 H   0  0  0  0  0  0  0  0  0  0  0  0
   -0.7116    1.9947   -1.2359 H   0  0  0  0  0  0  0  0  0  0  0  0
    4.4193   -2.0219   -0.3394 H   0  0  0  0  0  0  0  0  0  0  0  0
    3.8363   -1.8707    1.3273 H   0  0  0  0  0  0  0  0  0  0  0  0
    3.1785   -3.1288    0.2664 H   0  0  0  0  0  0  0  0  0  0  0  0
   -1.2922   -2.4671   -0.8749 H   0  0  0  0  0  0  0  0  0  0  0  0
   -1.5165    1.8633    1.7099 H   0  0  0  0  0  0  0  0  0  0  0  0
   -2.2851    2.9727    0.6075 H   0  0  0  0  0  0  0  0  0  0  0  0
   -2.4059    1.3047    0.2353 H   0  0  0  0  0  0  0  0  0  0  0  0
    0.5310    3.8106    0.8823 H   0  0  0  0  0  0  0  0  0  0  0  0
   -0.6920    4.3323   -0.2818 H   0  0  0  0  0  0  0  0  0  0  0  0
    0.8640    3.7936   -0.8648 H   0  0  0  0  0  0  0  0  0  0  0  0
   -2.8377    0.0238   -1.8451 H   0  0  0  0  0  0  0  0  0  0  0  0
   -2.1936   -1.2355   -2.8896 H   0  0  0  0  0  0  0  0  0  0  0  0
   -3.5118   -1.6135   -1.7553 H   0  0  0  0  0  0  0  0  0  0  0  0
  1  5  1  0  0  0  0
  1 12  1  0  0  0  0
  2  5  1  0  0  0  0
  2 15  1  0  0  0  0
  3 15  2  0  0  0  0
  4  5  1  0  0  0  0
  4  7  1  0  0  0  0
  4 10  1  0  0  0  0
  4 17  1  0  0  0  0
  5  6  1  0  0  0  0
  6  8  1  0  0  0  0
  6 18  1  0  0  0  0
  6 19  1  0  0  0  0
  7  9  1  0  0  0  0
  7 20  1  0  0  0  0
  7 21  1  0  0  0  0
  8  9  1  0  0  0  0
  8 11  1  0  0  0  0
  8 22  1  0  0  0  0
  9 23  1  0  0  0  0
  9 24  1  0  0  0  0
 10 13  1  0  0  0  0
 10 14  1  0  0  0  0
 10 25  1  0  0  0  0
 11 26  1  0  0  0  0
 11 27  1  0  0  0  0
 11 28  1  0  0  0  0
 12 15  1  0  0  0  0
 12 16  1  0  0  0  0
 12 29  1  0  0  0  0
 13 30  1  0  0  0  0
 13 31  1  0  0  0  0
 13 32  1  0  0  0  0
 14 33  1  0  0  0  0
 14 34  1  0  0  0  0
 14 35  1  0  0  0  0
 16 36  1  0  0  0  0
 16 37  1  0  0  0  0
 16 38  1  0  0  0  0
M  END
> <PUBCHEM_COMPOUND_CID>
11264633

> <PUBCHEM_CONFORMER_RMSD>
0.6

> <PUBCHEM_CONFORMER_DIVERSEORDER>
8
13
14
3
24
4
22
5
16
2
17
23
26
10
7
25
15
12
6
21
20
18
11
1
19
9

> <PUBCHEM_MMFF94_PARTIAL_CHARGES>
6
1 -0.56
12 0.34
15 0.66
2 -0.43
3 -0.57
5 0.56

> <PUBCHEM_EFFECTIVE_ROTOR_COUNT>
2.6

> <PUBCHEM_PHARMACOPHORE_FEATURES>
5
1 1 acceptor
1 3 acceptor
3 10 13 14 hydrophobe
5 1 2 5 12 15 rings
6 4 5 6 7 8 9 rings

> <PUBCHEM_HEAVY_ATOM_COUNT>
16

> <PUBCHEM_ATOM_DEF_STEREO_COUNT>
0

> <PUBCHEM_ATOM_UDEF_STEREO_COUNT>
4

> <PUBCHEM_BOND_DEF_STEREO_COUNT>
0

> <PUBCHEM_BOND_UDEF_STEREO_COUNT>
0

> <PUBCHEM_ISOTOPIC_ATOM_COUNT>
0

> <PUBCHEM_COMPONENT_COUNT>
1

> <PUBCHEM_CACTVS_TAUTO_COUNT>
1

> <PUBCHEM_CONFORMER_ID>
00ABE27900000008

> <PUBCHEM_MMFF94_ENERGY>
35.3982

> <PUBCHEM_FEATURE_SELFOVERLAP>
25.382

> <PUBCHEM_SHAPE_FINGERPRINT>
11578080 2 17487590057496169545
12326174 3 17756965058961328576
12423570 1 16736089416214110630
12553582 1 18412266168392140318
13140716 1 18338519625588128264
13538477 17 17970351403996028650
14617773 55 18413392012226751816
14817 1 15697733561651708963
15906896 17 17978223855447500957
16945 1 18194962078569415956
18721546 61 18124297329814920639
20361792 2 18343014523342887454
20525323 117 18412820262017079946
20645476 183 17032791151891254150
20711985 344 18121198910221690866
20871998 184 18199191676605563198
21041028 32 18409174302807617209
21296965 67 18410575106159235411
21501502 16 18339641140591707168
21524375 3 17473819524798748168
22112679 90 18343310249099908512
2334 1 18410015450735873888
23388829 49 18270399537192128352
23402539 116 18197490719623135253
23419403 2 16748668770145150072
23526113 38 18043223903611905407
23552423 10 17767123472781506295
23559900 14 17620474607201997126
23598291 2 17699305565794898191
25 1 17831583449882277069
2748010 2 18411697677693322324
6338986 31 18270943730970568766
69090 78 17981318997991642800
77492 1 17774166841142526839
81228 2 18265037042836967424

> <PUBCHEM_SHAPE_MULTIPOLES>
311.66
4.33
3.11
1.17
2.25
2.94
-0.25
-2.92
-0.07
-0.55
-0.08
-0.87
-0.47
-0.54

> <PUBCHEM_SHAPE_SELFOVERLAP>
641.224

> <PUBCHEM_SHAPE_VOLUME>
180

> <PUBCHEM_COORDINATE_TYPE>
2
5
10

$$$$
