113007
  -OEChem-11232108463D

 41 40  0     0  0  0  0  0  0999 V2000
    4.6125    0.3538    0.2358 O   0  0  0  0  0  0  0  0  0  0  0  0
    7.1698   -2.2111   -0.2559 N   0  0  0  0  0  0  0  0  0  0  0  0
   -1.6991    0.6587   -0.1932 C   0  0  0  0  0  0  0  0  0  0  0  0
   -0.3553    0.0987    0.2828 C   0  0  0  0  0  0  0  0  0  0  0  0
   -2.9063   -0.1206    0.3347 C   0  0  0  0  0  0  0  0  0  0  0  0
    0.8936    0.7992   -0.2628 C   0  0  0  0  0  0  0  0  0  0  0  0
   -4.2175    0.4798   -0.1798 C   0  0  0  0  0  0  0  0  0  0  0  0
    2.2039    0.2133    0.2728 C   0  0  0  0  0  0  0  0  0  0  0  0
   -5.4643   -0.2394    0.3446 C   0  0  0  0  0  0  0  0  0  0  0  0
    3.4263    0.9178   -0.3051 C   0  0  0  0  0  0  0  0  0  0  0  0
   -6.7710    0.3149   -0.2283 C   0  0  0  0  0  0  0  0  0  0  0  0
   -7.9589   -0.4149    0.3276 C   0  0  0  0  0  0  0  0  0  0  0  0
    5.7752    0.9872   -0.2813 C   0  0  0  0  0  0  0  0  0  0  0  0
    7.0172    0.3500    0.3260 C   0  0  0  0  0  0  0  0  0  0  0  0
   -8.8278   -1.1060   -0.4183 C   0  0  0  0  0  0  0  0  0  0  0  0
    7.1016   -1.0814    0.0001 C   0  0  0  0  0  0  0  0  0  0  0  0
   -1.7767    1.7079    0.1177 H   0  0  0  0  0  0  0  0  0  0  0  0
   -1.7168    0.6518   -1.2901 H   0  0  0  0  0  0  0  0  0  0  0  0
   -0.3300    0.1386    1.3793 H   0  0  0  0  0  0  0  0  0  0  0  0
   -0.3027   -0.9638    0.0122 H   0  0  0  0  0  0  0  0  0  0  0  0
   -2.9006   -0.1072    1.4310 H   0  0  0  0  0  0  0  0  0  0  0  0
   -2.8345   -1.1691    0.0223 H   0  0  0  0  0  0  0  0  0  0  0  0
    0.8877    0.7342   -1.3577 H   0  0  0  0  0  0  0  0  0  0  0  0
    0.8440    1.8649   -0.0081 H   0  0  0  0  0  0  0  0  0  0  0  0
   -4.2710    1.5376    0.1060 H   0  0  0  0  0  0  0  0  0  0  0  0
   -4.2202    0.4477   -1.2765 H   0  0  0  0  0  0  0  0  0  0  0  0
    2.2604   -0.8575    0.0409 H   0  0  0  0  0  0  0  0  0  0  0  0
    2.2275    0.2842    1.3674 H   0  0  0  0  0  0  0  0  0  0  0  0
   -5.3870   -1.3073    0.1018 H   0  0  0  0  0  0  0  0  0  0  0  0
   -5.4815   -0.1677    1.4398 H   0  0  0  0  0  0  0  0  0  0  0  0
    3.4347    0.8088   -1.3961 H   0  0  0  0  0  0  0  0  0  0  0  0
    3.3875    1.9861   -0.0610 H   0  0  0  0  0  0  0  0  0  0  0  0
   -6.8639    1.3775    0.0254 H   0  0  0  0  0  0  0  0  0  0  0  0
   -6.7497    0.2489   -1.3228 H   0  0  0  0  0  0  0  0  0  0  0  0
   -8.1199   -0.3629    1.4013 H   0  0  0  0  0  0  0  0  0  0  0  0
    5.7544    2.0538   -0.0289 H   0  0  0  0  0  0  0  0  0  0  0  0
    5.7929    0.8853   -1.3735 H   0  0  0  0  0  0  0  0  0  0  0  0
    6.9878    0.4596    1.4164 H   0  0  0  0  0  0  0  0  0  0  0  0
    7.9116    0.8681   -0.0359 H   0  0  0  0  0  0  0  0  0  0  0  0
   -9.6708   -1.6078    0.0440 H   0  0  0  0  0  0  0  0  0  0  0  0
   -8.7156   -1.1847   -1.4939 H   0  0  0  0  0  0  0  0  0  0  0  0
  1 10  1  0  0  0  0
  1 13  1  0  0  0  0
  2 16  3  0  0  0  0
  3  4  1  0  0  0  0
  3  5  1  0  0  0  0
  3 17  1  0  0  0  0
  3 18  1  0  0  0  0
  4  6  1  0  0  0  0
  4 19  1  0  0  0  0
  4 20  1  0  0  0  0
  5  7  1  0  0  0  0
  5 21  1  0  0  0  0
  5 22  1  0  0  0  0
  6  8  1  0  0  0  0
  6 23  1  0  0  0  0
  6 24  1  0  0  0  0
  7  9  1  0  0  0  0
  7 25  1  0  0  0  0
  7 26  1  0  0  0  0
  8 10  1  0  0  0  0
  8 27  1  0  0  0  0
  8 28  1  0  0  0  0
  9 11  1  0  0  0  0
  9 29  1  0  0  0  0
  9 30  1  0  0  0  0
 10 31  1  0  0  0  0
 10 32  1  0  0  0  0
 11 12  1  0  0  0  0
 11 33  1  0  0  0  0
 11 34  1  0  0  0  0
 12 15  2  0  0  0  0
 12 35  1  0  0  0  0
 13 14  1  0  0  0  0
 13 36  1  0  0  0  0
 13 37  1  0  0  0  0
 14 16  1  0  0  0  0
 14 38  1  0  0  0  0
 14 39  1  0  0  0  0
 15 40  1  0  0  0  0
 15 41  1  0  0  0  0
M  END
> <PUBCHEM_COMPOUND_CID>
113007

> <PUBCHEM_CONFORMER_RMSD>
1.2

> <PUBCHEM_CONFORMER_DIVERSEORDER>
1
10
138
418
326
105
300
88
201
351
433
129
227
2
168
12
205
34
228
8
106
22
19
507
43
390
448
497
260
6
455
429
211
7
371
315
343
77
78
29
540
145
15
191
163
164
25
206
48
419
267
47
249
244
253
40
139
513
32
65
4
285
62
83
387
366
101
162
161
21
20
16
242
243
226
5
23
13
414
181
182
136
124
60
87
346
24

> <PUBCHEM_MMFF94_PARTIAL_CHARGES>
12
1 -0.56
10 0.28
11 0.14
12 -0.29
13 0.28
14 0.2
15 -0.3
16 0.36
2 -0.56
35 0.15
40 0.15
41 0.15

> <PUBCHEM_EFFECTIVE_ROTOR_COUNT>
12

> <PUBCHEM_PHARMACOPHORE_FEATURES>
3
1 1 acceptor
1 15 hydrophobe
1 2 acceptor

> <PUBCHEM_HEAVY_ATOM_COUNT>
16

> <PUBCHEM_ATOM_DEF_STEREO_COUNT>
0

> <PUBCHEM_ATOM_UDEF_STEREO_COUNT>
0

> <PUBCHEM_BOND_DEF_STEREO_COUNT>
0

> <PUBCHEM_BOND_UDEF_STEREO_COUNT>
0

> <PUBCHEM_ISOTOPIC_ATOM_COUNT>
0

> <PUBCHEM_COMPONENT_COUNT>
1

> <PUBCHEM_CACTVS_TAUTO_COUNT>
1

> <PUBCHEM_CONFORMER_ID>
0001B96F00000001

> <PUBCHEM_MMFF94_ENERGY>
6.1919

> <PUBCHEM_FEATURE_SELFOVERLAP>
15.223

> <PUBCHEM_SHAPE_FINGERPRINT>
10066227 49 18339080389282415438
11315181 36 11241971469910048389
11638347 137 15267068017411945830
12091667 2 18259704511291975345
13073987 5 14835858226609233929
13885169 127 18408603635273062813
14123256 10 18259702311651417905
14251764 18 18060421313463148771
14251764 46 18187081767770935952
14617042 71 9727335949696884594
14729087 3 12679468565116721755
155225 1 9151165460168216530
15690457 1 18343579655461357423
15716309 27 18272650164611337901
17834076 25 18131071545624004457
18006028 8 18408040728121744909
20165401 70 18130505224464992502
20621476 38 18410293567512447630
20621476 8 17385720296766503735
20735858 18 16702303451101170453
21095086 128 18341893013673193551
21150785 3 13118001097651761489
21315759 40 18273219711666330137
21315763 28 18412545418660220041
22224240 67 12247678270803188341
23035841 295 17775284976096242253
23521765 1 18341895208063813129
246663 6 18040155119561549473
28498 318 18334574629217176293
33532 11 18410572868808614018
33684 2 18113615699395797217
5283156 175 18343303656198502129
5758199 1 11743842465053930853
59755656 215 17530964653467481586
67123 10 18411418440399854092
8209 1 17530963601000007553

> <PUBCHEM_SHAPE_MULTIPOLES>
318.42
29.7
1.24
0.68
13.8
0.59
0
11.45
-1.17
-2.19
-0.15
0.16
0
0.06

> <PUBCHEM_SHAPE_SELFOVERLAP>
578.792

> <PUBCHEM_SHAPE_VOLUME>
200.9

> <PUBCHEM_COORDINATE_TYPE>
2
5
10

$$$$
