11322274
  -OEChem-11232109173D

 43 44  0     1  0  0  0  0  0999 V2000
    3.8956    0.4167   -0.5724 O   0  0  0  0  0  0  0  0  0  0  0  0
    0.6134   -0.6621   -0.3359 C   0  0  1  0  0  0  0  0  0  0  0  0
    1.6939    0.2562    0.3142 C   0  0  1  0  0  0  0  0  0  0  0  0
   -0.7990   -0.0988   -0.1198 C   0  0  0  0  0  0  0  0  0  0  0  0
   -1.9743   -1.0848    0.0883 C   0  0  0  0  0  0  0  0  0  0  0  0
   -0.9792    1.2450   -0.0736 C   0  0  0  0  0  0  0  0  0  0  0  0
    1.5687    1.6746   -0.2553 C   0  0  0  0  0  0  0  0  0  0  0  0
    0.1575    2.2465   -0.1170 C   0  0  0  0  0  0  0  0  0  0  0  0
   -3.2287   -0.3508    0.6443 C   0  0  0  0  0  0  0  0  0  0  0  0
   -2.3330    1.8990    0.0790 C   0  0  0  0  0  0  0  0  0  0  0  0
   -3.5068    0.9476   -0.0922 C   0  0  0  0  0  0  0  0  0  0  0  0
    0.8554   -0.8699   -1.8458 C   0  0  0  0  0  0  0  0  0  0  0  0
    1.5771    0.2632    1.8518 C   0  0  0  0  0  0  0  0  0  0  0  0
   -2.3535   -1.7712   -1.2394 C   0  0  0  0  0  0  0  0  0  0  0  0
   -1.6347   -2.1820    1.1229 C   0  0  0  0  0  0  0  0  0  0  0  0
    3.0795   -0.2708    0.0290 C   0  0  0  0  0  0  0  0  0  0  0  0
    3.3681   -1.6583    0.5219 C   0  0  0  0  0  0  0  0  0  0  0  0
    0.6814   -1.6428    0.1397 H   0  0  0  0  0  0  0  0  0  0  0  0
    1.8393    1.6866   -1.3196 H   0  0  0  0  0  0  0  0  0  0  0  0
    2.2802    2.3571    0.2291 H   0  0  0  0  0  0  0  0  0  0  0  0
   -0.0121    2.9571   -0.9355 H   0  0  0  0  0  0  0  0  0  0  0  0
    0.1193    2.8321    0.8113 H   0  0  0  0  0  0  0  0  0  0  0  0
   -3.0887   -0.1247    1.7109 H   0  0  0  0  0  0  0  0  0  0  0  0
   -4.1124   -0.9988    0.5850 H   0  0  0  0  0  0  0  0  0  0  0  0
   -2.3831    2.3571    1.0751 H   0  0  0  0  0  0  0  0  0  0  0  0
   -2.4386    2.7108   -0.6509 H   0  0  0  0  0  0  0  0  0  0  0  0
   -4.4180    1.4146    0.2991 H   0  0  0  0  0  0  0  0  0  0  0  0
   -3.6855    0.7549   -1.1564 H   0  0  0  0  0  0  0  0  0  0  0  0
    0.6677    0.0414   -2.4234 H   0  0  0  0  0  0  0  0  0  0  0  0
    1.8786   -1.1951   -2.0560 H   0  0  0  0  0  0  0  0  0  0  0  0
    0.2038   -1.6467   -2.2520 H   0  0  0  0  0  0  0  0  0  0  0  0
    1.4676   -0.7469    2.2620 H   0  0  0  0  0  0  0  0  0  0  0  0
    2.4601    0.7177    2.3174 H   0  0  0  0  0  0  0  0  0  0  0  0
    0.7076    0.8302    2.1995 H   0  0  0  0  0  0  0  0  0  0  0  0
   -2.4451   -1.0516   -2.0601 H   0  0  0  0  0  0  0  0  0  0  0  0
   -1.6130   -2.5222   -1.5316 H   0  0  0  0  0  0  0  0  0  0  0  0
   -3.3098   -2.3005   -1.1536 H   0  0  0  0  0  0  0  0  0  0  0  0
   -2.5282   -2.7593    1.3899 H   0  0  0  0  0  0  0  0  0  0  0  0
   -0.9043   -2.9029    0.7411 H   0  0  0  0  0  0  0  0  0  0  0  0
   -1.2323   -1.7482    2.0457 H   0  0  0  0  0  0  0  0  0  0  0  0
    3.3471   -1.7091    1.6116 H   0  0  0  0  0  0  0  0  0  0  0  0
    2.6926   -2.3948    0.0857 H   0  0  0  0  0  0  0  0  0  0  0  0
    4.3818   -1.9291    0.2068 H   0  0  0  0  0  0  0  0  0  0  0  0
  1 16  2  0  0  0  0
  2  3  1  0  0  0  0
  2  4  1  0  0  0  0
  2 12  1  0  0  0  0
  2 18  1  0  0  0  0
  3  7  1  0  0  0  0
  3 13  1  0  0  0  0
  3 16  1  0  0  0  0
  4  5  1  0  0  0  0
  4  6  2  0  0  0  0
  5  9  1  0  0  0  0
  5 14  1  0  0  0  0
  5 15  1  0  0  0  0
  6  8  1  0  0  0  0
  6 10  1  0  0  0  0
  7  8  1  0  0  0  0
  7 19  1  0  0  0  0
  7 20  1  0  0  0  0
  8 21  1  0  0  0  0
  8 22  1  0  0  0  0
  9 11  1  0  0  0  0
  9 23  1  0  0  0  0
  9 24  1  0  0  0  0
 10 11  1  0  0  0  0
 10 25  1  0  0  0  0
 10 26  1  0  0  0  0
 11 27  1  0  0  0  0
 11 28  1  0  0  0  0
 12 29  1  0  0  0  0
 12 30  1  0  0  0  0
 12 31  1  0  0  0  0
 13 32  1  0  0  0  0
 13 33  1  0  0  0  0
 13 34  1  0  0  0  0
 14 35  1  0  0  0  0
 14 36  1  0  0  0  0
 14 37  1  0  0  0  0
 15 38  1  0  0  0  0
 15 39  1  0  0  0  0
 15 40  1  0  0  0  0
 16 17  1  0  0  0  0
 17 41  1  0  0  0  0
 17 42  1  0  0  0  0
 17 43  1  0  0  0  0
M  END
> <PUBCHEM_COMPOUND_CID>
11322274

> <PUBCHEM_CONFORMER_RMSD>
0.6

> <PUBCHEM_CONFORMER_DIVERSEORDER>
1
3
2

> <PUBCHEM_MMFF94_PARTIAL_CHARGES>
10
1 -0.57
10 0.14
16 0.45
17 0.06
2 0.14
3 0.06
4 -0.28
5 0.14
6 -0.28
8 0.14

> <PUBCHEM_EFFECTIVE_ROTOR_COUNT>
2.6

> <PUBCHEM_PHARMACOPHORE_FEATURES>
4
1 1 acceptor
3 5 14 15 hydrophobe
6 2 3 4 6 7 8 rings
6 4 5 6 9 10 11 rings

> <PUBCHEM_HEAVY_ATOM_COUNT>
17

> <PUBCHEM_ATOM_DEF_STEREO_COUNT>
2

> <PUBCHEM_ATOM_UDEF_STEREO_COUNT>
0

> <PUBCHEM_BOND_DEF_STEREO_COUNT>
0

> <PUBCHEM_BOND_UDEF_STEREO_COUNT>
0

> <PUBCHEM_ISOTOPIC_ATOM_COUNT>
0

> <PUBCHEM_COMPONENT_COUNT>
1

> <PUBCHEM_CACTVS_TAUTO_COUNT>
2

> <PUBCHEM_CONFORMER_ID>
00ACC3A200000001

> <PUBCHEM_MMFF94_ENERGY>
43.459

> <PUBCHEM_FEATURE_SELFOVERLAP>
20.313

> <PUBCHEM_SHAPE_FINGERPRINT>
10863032 1 18335704927265488544
10967382 1 18337110072791924784
11132069 177 18342450439570665432
11578080 2 17058351825335559411
12011746 2 18342739572479307485
12138202 97 18341607058465162901
12251169 10 18412826897425106073
12423570 1 15013488410311150588
124424 183 18410570652304419215
12553582 1 18408320012327186730
13132413 78 18334017189654282244
13140716 1 18341051912330389153
13221675 6 18333450936754835736
13538477 17 18040714775042998233
13581323 91 18334861606131343561
14115302 16 17458918127402058419
14787075 74 16742559041516178954
15207287 21 17986943072855443855
15219456 202 18059301941606045974
15309172 13 17418376895865513102
15375462 189 17822007601320753888
15775835 57 17822011969529502641
15852999 172 17131832032342447543
16752209 62 18190161417940786033
16945 1 17832708245998205801
17804303 29 18201720622084826928
17990270 104 18266456696926466257
1813 80 16879357693222967494
18175812 5 17988918985508232252
18186145 218 16732985323554268378
19422 9 18113623348220835568
20511035 2 18200306744483812852
20588541 1 18129946658949590188
20645476 183 17677638413379779335
21267235 1 18336557040113487130
21501502 16 18340208608497413037
22344851 262 17846775209186052151
22344851 341 17119733878142024152
22721475 48 18343308049997557577
23175994 123 17131841932521411952
232386 152 18334300872143663876
2334 1 18195809797824145821
23388829 49 17624400275148159957
23402539 116 18271231726039846781
23419403 2 16683650361180548461
23463225 33 18410294692250384956
23559900 14 18339079294766627850
2748010 2 18269832184686355549
3286 77 16988272183506049115
34934 24 18408598171663127672
474 4 17024326308374796412
568465 68 17489305274302879858
69090 78 18130781236126218087
7364860 26 18197217164207792680
74978 22 18260543480616511891
77492 1 17313110726179231872
81228 2 18336811083355598497
8809292 202 18408046216598916587

> <PUBCHEM_SHAPE_MULTIPOLES>
343.98
5.54
2.25
1.26
1.37
0.18
-0.02
-0.7
0.3
-0.81
0.01
0.22
-0.47
-0.12

> <PUBCHEM_SHAPE_SELFOVERLAP>
710.531

> <PUBCHEM_SHAPE_VOLUME>
196.6

> <PUBCHEM_COORDINATE_TYPE>
2
5
10

$$$$
