113204
  -OEChem-11232109443D

 17 17  0     0  0  0  0  0  0999 V2000
   -2.2773    0.0251    0.5253 O   0  0  0  0  0  0  0  0  0  0  0  0
    0.5355   -1.2128   -0.1656 N   0  0  0  0  0  0  0  0  0  0  0  0
    1.9486    1.1915    0.1325 N   0  0  0  0  0  0  0  0  0  0  0  0
   -1.5051    0.0005   -0.6700 C   0  0  0  0  0  0  0  0  0  0  0  0
   -0.0566   -0.0125   -0.3255 C   0  0  0  0  0  0  0  0  0  0  0  0
    0.6375    1.1684   -0.1790 C   0  0  0  0  0  0  0  0  0  0  0  0
    1.8465   -1.1897    0.1456 C   0  0  0  0  0  0  0  0  0  0  0  0
   -3.6697    0.0383    0.2445 C   0  0  0  0  0  0  0  0  0  0  0  0
    2.5407   -0.0088    0.2922 C   0  0  0  0  0  0  0  0  0  0  0  0
   -1.7441    0.8722   -1.2914 H   0  0  0  0  0  0  0  0  0  0  0  0
   -1.7518   -0.8998   -1.2461 H   0  0  0  0  0  0  0  0  0  0  0  0
    0.1700    2.1381   -0.3036 H   0  0  0  0  0  0  0  0  0  0  0  0
    2.3230   -2.1536    0.2742 H   0  0  0  0  0  0  0  0  0  0  0  0
   -3.9590   -0.8620   -0.3062 H   0  0  0  0  0  0  0  0  0  0  0  0
   -3.9376    0.9325   -0.3268 H   0  0  0  0  0  0  0  0  0  0  0  0
   -4.2121    0.0556    1.1935 H   0  0  0  0  0  0  0  0  0  0  0  0
    3.5942    0.0088    0.5424 H   0  0  0  0  0  0  0  0  0  0  0  0
  1  4  1  0  0  0  0
  1  8  1  0  0  0  0
  2  5  2  0  0  0  0
  2  7  1  0  0  0  0
  3  6  2  0  0  0  0
  3  9  1  0  0  0  0
  4  5  1  0  0  0  0
  4 10  1  0  0  0  0
  4 11  1  0  0  0  0
  5  6  1  0  0  0  0
  6 12  1  0  0  0  0
  7  9  2  0  0  0  0
  7 13  1  0  0  0  0
  8 14  1  0  0  0  0
  8 15  1  0  0  0  0
  8 16  1  0  0  0  0
  9 17  1  0  0  0  0
M  END
> <PUBCHEM_COMPOUND_CID>
113204

> <PUBCHEM_CONFORMER_RMSD>
0.4

> <PUBCHEM_CONFORMER_DIVERSEORDER>
1
9
8
7
2
3
6
4
5

> <PUBCHEM_MMFF94_PARTIAL_CHARGES>
12
1 -0.56
12 0.15
13 0.15
17 0.15
2 -0.62
3 -0.62
4 0.42
5 0.17
6 0.16
7 0.16
8 0.28
9 0.16

> <PUBCHEM_EFFECTIVE_ROTOR_COUNT>
2

> <PUBCHEM_PHARMACOPHORE_FEATURES>
4
1 1 acceptor
1 2 acceptor
1 3 acceptor
6 2 3 5 6 7 9 rings

> <PUBCHEM_HEAVY_ATOM_COUNT>
9

> <PUBCHEM_ATOM_DEF_STEREO_COUNT>
0

> <PUBCHEM_ATOM_UDEF_STEREO_COUNT>
0

> <PUBCHEM_BOND_DEF_STEREO_COUNT>
0

> <PUBCHEM_BOND_UDEF_STEREO_COUNT>
0

> <PUBCHEM_ISOTOPIC_ATOM_COUNT>
0

> <PUBCHEM_COMPONENT_COUNT>
1

> <PUBCHEM_CACTVS_TAUTO_COUNT>
1

> <PUBCHEM_CONFORMER_ID>
0001BA3400000001

> <PUBCHEM_MMFF94_ENERGY>
23.2857

> <PUBCHEM_FEATURE_SELFOVERLAP>
20.301

> <PUBCHEM_SHAPE_FINGERPRINT>
10219947 1 18408323289218233541
10857977 72 17531245084455694653
14325111 11 18411981399064230485
20871998 22 17983299222908024606
21040471 1 18195241346333830652
23235685 24 18410289254869254408
29004967 10 18260546697430978528

> <PUBCHEM_SHAPE_MULTIPOLES>
169.38
4.57
1.19
0.71
4
0.01
0.03
-0.08
-0.87
-0.75
0.01
0.14
0
0.01

> <PUBCHEM_SHAPE_SELFOVERLAP>
340.195

> <PUBCHEM_SHAPE_VOLUME>
100.1

> <PUBCHEM_COORDINATE_TYPE>
2
5
10

$$$$
