11332546
  -OEChem-11232109483D

 23 22  0     0  0  0  0  0  0999 V2000
    2.9886   -0.8198    0.6407 S   0  0  0  0  0  0  0  0  0  0  0  0
   -1.2076    1.3582    0.1246 O   0  0  0  0  0  0  0  0  0  0  0  0
    1.4862   -0.0456   -0.0979 C   0  0  0  0  0  0  0  0  0  0  0  0
    0.3034   -0.3678    0.8348 C   0  0  0  0  0  0  0  0  0  0  0  0
    1.2990   -0.6377   -1.4989 C   0  0  0  0  0  0  0  0  0  0  0  0
    1.7574    1.4606   -0.1929 C   0  0  0  0  0  0  0  0  0  0  0  0
   -1.0392    0.1597    0.3487 C   0  0  0  0  0  0  0  0  0  0  0  0
   -2.1504   -0.8629    0.1781 C   0  0  0  0  0  0  0  0  0  0  0  0
   -3.4375   -0.2448   -0.3373 C   0  0  0  0  0  0  0  0  0  0  0  0
    0.2058   -1.4544    0.9595 H   0  0  0  0  0  0  0  0  0  0  0  0
    0.4581    0.0493    1.8385 H   0  0  0  0  0  0  0  0  0  0  0  0
    0.4419   -0.1812   -2.0072 H   0  0  0  0  0  0  0  0  0  0  0  0
    2.1754   -0.4644   -2.1346 H   0  0  0  0  0  0  0  0  0  0  0  0
    1.1152   -1.7178   -1.4608 H   0  0  0  0  0  0  0  0  0  0  0  0
    0.9750    1.9794   -0.7556 H   0  0  0  0  0  0  0  0  0  0  0  0
    1.8177    1.9250    0.7983 H   0  0  0  0  0  0  0  0  0  0  0  0
    2.6968    1.6699   -0.7198 H   0  0  0  0  0  0  0  0  0  0  0  0
   -2.3321   -1.3344    1.1495 H   0  0  0  0  0  0  0  0  0  0  0  0
   -1.8055   -1.6272   -0.5262 H   0  0  0  0  0  0  0  0  0  0  0  0
    2.5560   -2.0884    0.5893 H   0  0  0  0  0  0  0  0  0  0  0  0
   -3.8121    0.5177    0.3536 H   0  0  0  0  0  0  0  0  0  0  0  0
   -4.2097   -1.0117   -0.4511 H   0  0  0  0  0  0  0  0  0  0  0  0
   -3.2822    0.2321   -1.3107 H   0  0  0  0  0  0  0  0  0  0  0  0
  1  3  1  0  0  0  0
  1 20  1  0  0  0  0
  2  7  2  0  0  0  0
  3  4  1  0  0  0  0
  3  5  1  0  0  0  0
  3  6  1  0  0  0  0
  4  7  1  0  0  0  0
  4 10  1  0  0  0  0
  4 11  1  0  0  0  0
  5 12  1  0  0  0  0
  5 13  1  0  0  0  0
  5 14  1  0  0  0  0
  6 15  1  0  0  0  0
  6 16  1  0  0  0  0
  6 17  1  0  0  0  0
  7  8  1  0  0  0  0
  8  9  1  0  0  0  0
  8 18  1  0  0  0  0
  8 19  1  0  0  0  0
  9 21  1  0  0  0  0
  9 22  1  0  0  0  0
  9 23  1  0  0  0  0
M  END
> <PUBCHEM_COMPOUND_CID>
11332546

> <PUBCHEM_CONFORMER_RMSD>
0.6

> <PUBCHEM_CONFORMER_DIVERSEORDER>
1
10
19
15
21
13
20
8
5
4
6
18
9
17
2
12
11
3
14
7
16

> <PUBCHEM_MMFF94_PARTIAL_CHARGES>
7
1 -0.41
2 -0.57
20 0.18
3 0.23
4 0.06
7 0.45
8 0.06

> <PUBCHEM_EFFECTIVE_ROTOR_COUNT>
3

> <PUBCHEM_PHARMACOPHORE_FEATURES>
3
1 2 acceptor
1 9 hydrophobe
3 3 5 6 hydrophobe

> <PUBCHEM_HEAVY_ATOM_COUNT>
9

> <PUBCHEM_ATOM_DEF_STEREO_COUNT>
0

> <PUBCHEM_ATOM_UDEF_STEREO_COUNT>
0

> <PUBCHEM_BOND_DEF_STEREO_COUNT>
0

> <PUBCHEM_BOND_UDEF_STEREO_COUNT>
0

> <PUBCHEM_ISOTOPIC_ATOM_COUNT>
0

> <PUBCHEM_COMPONENT_COUNT>
1

> <PUBCHEM_CACTVS_TAUTO_COUNT>
3

> <PUBCHEM_CONFORMER_ID>
00ACEBC200000001

> <PUBCHEM_MMFF94_ENERGY>
16.0333

> <PUBCHEM_FEATURE_SELFOVERLAP>
15.223

> <PUBCHEM_SHAPE_FINGERPRINT>
10219947 1 17775280569401891202
10857977 72 15626220242981048299
11062470 55 18342171172138462763
12897270 3 18270973443474986741
12932741 1 13190634852930858249
12932764 1 18113909294279710675
20201158 50 18131915944573427191
20653085 51 15502378915639783447
21293036 1 14707213201517173186
23235685 24 10375865268803041986
23235687 12 18273222984067302409
23552423 10 18187648032816630635
24536 1 17774453676243437896
29004967 10 16702305637202652714
3248919 1 17917721209816400331
5084963 1 18201721743129294138

> <PUBCHEM_SHAPE_MULTIPOLES>
183.2
4.68
1.25
1.04
2.28
0.41
0.34
-0.98
-0.02
-0.37
-0.05
-0.43
-0.2
-0.15

> <PUBCHEM_SHAPE_SELFOVERLAP>
327.89

> <PUBCHEM_SHAPE_VOLUME>
121.1

> <PUBCHEM_COORDINATE_TYPE>
2
5
10

$$$$
