11332852
  -OEChem-11232109423D

 31 31  0     1  0  0  0  0  0999 V2000
    2.0896    0.4196   -0.8036 O   0  0  0  0  0  0  0  0  0  0  0  0
    3.9416   -0.9207   -0.9902 O   0  0  0  0  0  0  0  0  0  0  0  0
    1.0624    0.6340    0.1809 C   0  0  2  0  0  0  0  0  0  0  0  0
    1.0174   -0.6740    0.9550 C   0  0  0  0  0  0  0  0  0  0  0  0
   -0.2538    0.9202   -0.5348 C   0  0  0  0  0  0  0  0  0  0  0  0
    2.4500   -1.1545    0.9032 C   0  0  0  0  0  0  0  0  0  0  0  0
    1.4648    1.8225    1.0574 C   0  0  0  0  0  0  0  0  0  0  0  0
   -1.4228    0.9809    0.4484 C   0  0  0  0  0  0  0  0  0  0  0  0
    2.9321   -0.5779   -0.3943 C   0  0  0  0  0  0  0  0  0  0  0  0
   -2.7194    1.2364   -0.2631 C   0  0  0  0  0  0  0  0  0  0  0  0
   -3.5251    0.2647   -0.7163 C   0  0  0  0  0  0  0  0  0  0  0  0
   -3.2312   -1.1988   -0.5687 C   0  0  0  0  0  0  0  0  0  0  0  0
   -3.8056   -1.7523    0.7261 C   0  0  0  0  0  0  0  0  0  0  0  0
    0.3883   -1.4118    0.4399 H   0  0  0  0  0  0  0  0  0  0  0  0
    0.6460   -0.5758    1.9797 H   0  0  0  0  0  0  0  0  0  0  0  0
   -0.1771    1.8596   -1.0991 H   0  0  0  0  0  0  0  0  0  0  0  0
   -0.4306    0.1478   -1.2954 H   0  0  0  0  0  0  0  0  0  0  0  0
    2.5058   -2.2456    0.8927 H   0  0  0  0  0  0  0  0  0  0  0  0
    3.0481   -0.7464    1.7226 H   0  0  0  0  0  0  0  0  0  0  0  0
    1.4724    2.7505    0.4742 H   0  0  0  0  0  0  0  0  0  0  0  0
    0.8001    1.9552    1.9157 H   0  0  0  0  0  0  0  0  0  0  0  0
    2.4841    1.7031    1.4424 H   0  0  0  0  0  0  0  0  0  0  0  0
   -1.4882    0.0729    1.0544 H   0  0  0  0  0  0  0  0  0  0  0  0
   -1.2847    1.8013    1.1619 H   0  0  0  0  0  0  0  0  0  0  0  0
   -3.0066    2.2722   -0.4231 H   0  0  0  0  0  0  0  0  0  0  0  0
   -4.4515    0.5411   -1.2128 H   0  0  0  0  0  0  0  0  0  0  0  0
   -2.1580   -1.4089   -0.6180 H   0  0  0  0  0  0  0  0  0  0  0  0
   -3.6764   -1.7281   -1.4197 H   0  0  0  0  0  0  0  0  0  0  0  0
   -3.6048   -2.8262    0.7972 H   0  0  0  0  0  0  0  0  0  0  0  0
   -4.8910   -1.6105    0.7686 H   0  0  0  0  0  0  0  0  0  0  0  0
   -3.3667   -1.2701    1.6053 H   0  0  0  0  0  0  0  0  0  0  0  0
  1  3  1  0  0  0  0
  1  9  1  0  0  0  0
  2  9  2  0  0  0  0
  3  4  1  0  0  0  0
  3  5  1  0  0  0  0
  3  7  1  0  0  0  0
  4  6  1  0  0  0  0
  4 14  1  0  0  0  0
  4 15  1  0  0  0  0
  5  8  1  0  0  0  0
  5 16  1  0  0  0  0
  5 17  1  0  0  0  0
  6  9  1  0  0  0  0
  6 18  1  0  0  0  0
  6 19  1  0  0  0  0
  7 20  1  0  0  0  0
  7 21  1  0  0  0  0
  7 22  1  0  0  0  0
  8 10  1  0  0  0  0
  8 23  1  0  0  0  0
  8 24  1  0  0  0  0
 10 11  2  0  0  0  0
 10 25  1  0  0  0  0
 11 12  1  0  0  0  0
 11 26  1  0  0  0  0
 12 13  1  0  0  0  0
 12 27  1  0  0  0  0
 12 28  1  0  0  0  0
 13 29  1  0  0  0  0
 13 30  1  0  0  0  0
 13 31  1  0  0  0  0
M  END
> <PUBCHEM_COMPOUND_CID>
11332852

> <PUBCHEM_CONFORMER_RMSD>
0.6

> <PUBCHEM_CONFORMER_DIVERSEORDER>
2
44
20
51
64
4
3
35
49
71
17
57
75
43
48
32
13
39
24
7
67
1
76
77
60
33
79
53
28
30
22
25
6
41
69
19
55
36
26
21
15
56
66
10
31
72
61
34
11
42
74
23
46
80
5
58
70
63
73
50
18
81
59
78
12
62
9
16
8
52
29
68
40
37
27
65
47
45
14
38
54

> <PUBCHEM_MMFF94_PARTIAL_CHARGES>
11
1 -0.43
10 -0.29
11 -0.29
12 0.14
2 -0.57
25 0.15
26 0.15
3 0.28
6 0.06
8 0.14
9 0.66

> <PUBCHEM_EFFECTIVE_ROTOR_COUNT>
4.8

> <PUBCHEM_PHARMACOPHORE_FEATURES>
3
1 13 hydrophobe
1 2 acceptor
5 1 3 4 6 9 rings

> <PUBCHEM_HEAVY_ATOM_COUNT>
13

> <PUBCHEM_ATOM_DEF_STEREO_COUNT>
0

> <PUBCHEM_ATOM_UDEF_STEREO_COUNT>
1

> <PUBCHEM_BOND_DEF_STEREO_COUNT>
1

> <PUBCHEM_BOND_UDEF_STEREO_COUNT>
0

> <PUBCHEM_ISOTOPIC_ATOM_COUNT>
0

> <PUBCHEM_COMPONENT_COUNT>
1

> <PUBCHEM_CACTVS_TAUTO_COUNT>
2

> <PUBCHEM_CONFORMER_ID>
00ACECF400000002

> <PUBCHEM_MMFF94_ENERGY>
16.0761

> <PUBCHEM_FEATURE_SELFOVERLAP>
15.223

> <PUBCHEM_SHAPE_FINGERPRINT>
11543360 7 17676777530013533012
12138202 97 15141548894849854600
12162725 195 11167929277983088581
12251169 10 12031778167493581701
12500047 106 18190448377685705525
12696612 119 12391505421170797179
12932764 1 18187357697607549585
13296908 3 18340198691692083629
13571099 52 8358255947219068516
13705890 14 18272653437476579148
14251710 61 18411423946743210367
14252887 29 17632856408861370782
14897335 6 8142089745279934481
15239191 94 18409449198058129475
17041 49 13038904430141403562
18342897 55 15213021539811040953
19107657 162 18272085002691957743
19766037 51 18115601481593502755
20281475 54 18262235512826022187
20339313 130 17346601876337171856
20645477 70 18201143447526717373
20767249 462 9583525308654832707
20871999 31 17603580829635151407
21634736 98 18188212112230497214
21713013 43 17894910763198857983
221490 88 18337677519681658586
23382010 3 17750249126401952004
23402539 116 16153426117366143340
23402655 69 17386566856015969813
2871803 45 18115018723309038379
528716 315 18040719169084796119
7364860 26 17987789847323045416
93112 12 18187078438860220821
94968 8 18334858372031798555

> <PUBCHEM_SHAPE_MULTIPOLES>
255.8
7.02
1.77
1.09
2.51
0.01
0.07
3.23
-1.28
0.6
0.4
-0.37
0.07
0.56

> <PUBCHEM_SHAPE_SELFOVERLAP>
504.386

> <PUBCHEM_SHAPE_VOLUME>
154.5

> <PUBCHEM_COORDINATE_TYPE>
2
5
10

$$$$
