11344862
  -OEChem-11232108443D

 41 40  0     0  0  0  0  0  0999 V2000
   -4.9224    0.3985    1.2539 O   0  0  0  0  0  0  0  0  0  0  0  0
    2.8326    0.2256    0.2480 C   0  0  0  0  0  0  0  0  0  0  0  0
    3.4411   -1.0636    0.8099 C   0  0  0  0  0  0  0  0  0  0  0  0
    3.8454    1.3726    0.2536 C   0  0  0  0  0  0  0  0  0  0  0  0
    2.4442   -2.2277    0.8422 C   0  0  0  0  0  0  0  0  0  0  0  0
   -1.3154   -0.9817   -0.7245 C   0  0  0  0  0  0  0  0  0  0  0  0
   -0.5914   -2.1779   -0.1026 C   0  0  0  0  0  0  0  0  0  0  0  0
    3.2701    2.6880   -0.2771 C   0  0  0  0  0  0  0  0  0  0  0  0
   -2.5731   -0.6143    0.0692 C   0  0  0  0  0  0  0  0  0  0  0  0
    1.8975   -2.5707   -0.5139 C   0  0  0  0  0  0  0  0  0  0  0  0
    0.6159   -2.5543   -0.9121 C   0  0  0  0  0  0  0  0  0  0  0  0
   -3.3049    0.5834   -0.5352 C   0  0  0  0  0  0  0  0  0  0  0  0
    4.2759    3.8287   -0.3016 C   0  0  0  0  0  0  0  0  0  0  0  0
   -4.5548    0.9796    0.2339 C   0  0  0  0  0  0  0  0  0  0  0  0
   -5.3604    2.1138   -0.3438 C   0  0  0  0  0  0  0  0  0  0  0  0
    2.4863    0.0694   -0.7800 H   0  0  0  0  0  0  0  0  0  0  0  0
    1.9570    0.5073    0.8454 H   0  0  0  0  0  0  0  0  0  0  0  0
    4.3136   -1.3470    0.2076 H   0  0  0  0  0  0  0  0  0  0  0  0
    3.8052   -0.8847    1.8289 H   0  0  0  0  0  0  0  0  0  0  0  0
    4.7144    1.0900   -0.3535 H   0  0  0  0  0  0  0  0  0  0  0  0
    4.2109    1.5297    1.2761 H   0  0  0  0  0  0  0  0  0  0  0  0
    2.9556   -3.1146    1.2360 H   0  0  0  0  0  0  0  0  0  0  0  0
    1.6521   -1.9925    1.5584 H   0  0  0  0  0  0  0  0  0  0  0  0
   -0.6398   -0.1174   -0.7576 H   0  0  0  0  0  0  0  0  0  0  0  0
   -1.5947   -1.2106   -1.7608 H   0  0  0  0  0  0  0  0  0  0  0  0
   -0.3400   -1.9495    0.9364 H   0  0  0  0  0  0  0  0  0  0  0  0
   -1.2666   -3.0420   -0.0767 H   0  0  0  0  0  0  0  0  0  0  0  0
   -3.2506   -1.4767    0.1049 H   0  0  0  0  0  0  0  0  0  0  0  0
   -2.2987   -0.3885    1.1073 H   0  0  0  0  0  0  0  0  0  0  0  0
    2.8892    2.5328   -1.2936 H   0  0  0  0  0  0  0  0  0  0  0  0
    2.4138    2.9841    0.3405 H   0  0  0  0  0  0  0  0  0  0  0  0
    2.6389   -2.8825   -1.2481 H   0  0  0  0  0  0  0  0  0  0  0  0
    0.4145   -2.8539   -1.9397 H   0  0  0  0  0  0  0  0  0  0  0  0
   -2.6383    1.4528   -0.5574 H   0  0  0  0  0  0  0  0  0  0  0  0
   -3.6048    0.3503   -1.5631 H   0  0  0  0  0  0  0  0  0  0  0  0
    5.1284    3.5831   -0.9426 H   0  0  0  0  0  0  0  0  0  0  0  0
    4.6518    4.0384    0.7047 H   0  0  0  0  0  0  0  0  0  0  0  0
    3.8089    4.7397   -0.6885 H   0  0  0  0  0  0  0  0  0  0  0  0
   -5.7444    1.8271   -1.3257 H   0  0  0  0  0  0  0  0  0  0  0  0
   -4.7313    3.0033   -0.4295 H   0  0  0  0  0  0  0  0  0  0  0  0
   -6.2026    2.3419    0.3154 H   0  0  0  0  0  0  0  0  0  0  0  0
  1 14  2  0  0  0  0
  2  3  1  0  0  0  0
  2  4  1  0  0  0  0
  2 16  1  0  0  0  0
  2 17  1  0  0  0  0
  3  5  1  0  0  0  0
  3 18  1  0  0  0  0
  3 19  1  0  0  0  0
  4  8  1  0  0  0  0
  4 20  1  0  0  0  0
  4 21  1  0  0  0  0
  5 10  1  0  0  0  0
  5 22  1  0  0  0  0
  5 23  1  0  0  0  0
  6  7  1  0  0  0  0
  6  9  1  0  0  0  0
  6 24  1  0  0  0  0
  6 25  1  0  0  0  0
  7 11  1  0  0  0  0
  7 26  1  0  0  0  0
  7 27  1  0  0  0  0
  8 13  1  0  0  0  0
  8 30  1  0  0  0  0
  8 31  1  0  0  0  0
  9 12  1  0  0  0  0
  9 28  1  0  0  0  0
  9 29  1  0  0  0  0
 10 11  2  0  0  0  0
 10 32  1  0  0  0  0
 11 33  1  0  0  0  0
 12 14  1  0  0  0  0
 12 34  1  0  0  0  0
 12 35  1  0  0  0  0
 13 36  1  0  0  0  0
 13 37  1  0  0  0  0
 13 38  1  0  0  0  0
 14 15  1  0  0  0  0
 15 39  1  0  0  0  0
 15 40  1  0  0  0  0
 15 41  1  0  0  0  0
M  END
> <PUBCHEM_COMPOUND_CID>
11344862

> <PUBCHEM_CONFORMER_RMSD>
1.2

> <PUBCHEM_CONFORMER_DIVERSEORDER>
1
65
43
4
18
78
27
70
54
20
19
42
21
13
2
23
66
16
58
57
74
64
30
26
38
52
6
55
5
25
69
60
14
50
3
47
24
71
15
35
49
67
9
51
59
22
41
8
72
40
44
62
36
53
33
10
7
34
39
73
46
17
11
45
29
32
12
61
56
48
76
68
31
63
77
75
28
37

> <PUBCHEM_MMFF94_PARTIAL_CHARGES>
10
1 -0.57
10 -0.29
11 -0.29
12 0.06
14 0.45
15 0.06
32 0.15
33 0.15
5 0.14
7 0.14

> <PUBCHEM_EFFECTIVE_ROTOR_COUNT>
10

> <PUBCHEM_PHARMACOPHORE_FEATURES>
5
1 1 acceptor
1 13 hydrophobe
3 2 4 8 hydrophobe
3 3 5 10 hydrophobe
5 6 7 9 11 12 hydrophobe

> <PUBCHEM_HEAVY_ATOM_COUNT>
15

> <PUBCHEM_ATOM_DEF_STEREO_COUNT>
0

> <PUBCHEM_ATOM_UDEF_STEREO_COUNT>
0

> <PUBCHEM_BOND_DEF_STEREO_COUNT>
1

> <PUBCHEM_BOND_UDEF_STEREO_COUNT>
0

> <PUBCHEM_ISOTOPIC_ATOM_COUNT>
0

> <PUBCHEM_COMPONENT_COUNT>
1

> <PUBCHEM_CACTVS_TAUTO_COUNT>
3

> <PUBCHEM_CONFORMER_ID>
00AD1BDE00000001

> <PUBCHEM_MMFF94_ENERGY>
1.466

> <PUBCHEM_FEATURE_SELFOVERLAP>
25.385

> <PUBCHEM_SHAPE_FINGERPRINT>
10382601 240 17895460532129437952
10937287 8 18267580402505810796
12403259 118 18338783585382575499
12617007 42 17916033361063779750
14123255 52 18339080518267889284
14251764 38 18194119621267906437
14251764 75 18267595778041143264
14576447 43 9295293872009987946
14774955 27 18410568500858087541
15322535 138 17692797607567770377
15342168 16 18412823590611440343
17810953 82 18411136909435808676
17834072 32 18339360880916655068
20621476 13 18338228267681075469
21388113 180 18261945267922551053
21665062 11 18264479607991098530
22224240 67 11603981330664170062
245318 6 18188222003625148141
44154327 71 18413387631323004736
474 4 18341890745355695131
5048184 11 18267020750950486588
56616090 278 18336833004916487642
8199 26 18267018547747853566

> <PUBCHEM_SHAPE_MULTIPOLES>
302.82
11.48
4.35
0.94
11.89
2.12
-0.08
11.91
-1.74
-5.75
0.83
0.17
-0.27
-0.7

> <PUBCHEM_SHAPE_SELFOVERLAP>
551.658

> <PUBCHEM_SHAPE_VOLUME>
192.7

> <PUBCHEM_COORDINATE_TYPE>
2
5
10

$$$$
