113514
  -OEChem-11232109453D

 29 30  0     1  0  0  0  0  0999 V2000
    2.6937   -0.9250    0.5420 O   0  0  0  0  0  0  0  0  0  0  0  0
    0.5947   -0.3030   -0.4528 C   0  0  1  0  0  0  0  0  0  0  0  0
    1.4740    0.9384   -0.2635 C   0  0  0  0  0  0  0  0  0  0  0  0
    2.8680    0.3632   -0.0623 C   0  0  1  0  0  0  0  0  0  0  0  0
    1.2967   -1.2572    0.5279 C   0  0  0  0  0  0  0  0  0  0  0  0
   -0.8823   -0.0755   -0.1481 C   0  0  0  0  0  0  0  0  0  0  0  0
    0.7137   -0.8384   -1.8944 C   0  0  0  0  0  0  0  0  0  0  0  0
    3.7533    1.2257    0.8186 C   0  0  0  0  0  0  0  0  0  0  0  0
   -1.4494    1.1825   -0.3495 C   0  0  0  0  0  0  0  0  0  0  0  0
   -1.6644   -1.1253    0.3319 C   0  0  0  0  0  0  0  0  0  0  0  0
   -2.8000    1.3909   -0.0704 C   0  0  0  0  0  0  0  0  0  0  0  0
   -3.0152   -0.9172    0.6109 C   0  0  0  0  0  0  0  0  0  0  0  0
   -3.5829    0.3410    0.4098 C   0  0  0  0  0  0  0  0  0  0  0  0
    1.1698    1.4901    0.6365 H   0  0  0  0  0  0  0  0  0  0  0  0
    1.4449    1.6398   -1.1046 H   0  0  0  0  0  0  0  0  0  0  0  0
    3.3625    0.2077   -1.0278 H   0  0  0  0  0  0  0  0  0  0  0  0
    0.9339   -1.1287    1.5549 H   0  0  0  0  0  0  0  0  0  0  0  0
    1.1875   -2.3135    0.2606 H   0  0  0  0  0  0  0  0  0  0  0  0
    0.1403   -1.7643   -2.0226 H   0  0  0  0  0  0  0  0  0  0  0  0
    0.3273   -0.1114   -2.6186 H   0  0  0  0  0  0  0  0  0  0  0  0
    1.7495   -1.0610   -2.1712 H   0  0  0  0  0  0  0  0  0  0  0  0
    3.3269    1.3315    1.8222 H   0  0  0  0  0  0  0  0  0  0  0  0
    4.7353    0.7575    0.9451 H   0  0  0  0  0  0  0  0  0  0  0  0
    3.8923    2.2214    0.3871 H   0  0  0  0  0  0  0  0  0  0  0  0
   -0.8715    2.0157   -0.7375 H   0  0  0  0  0  0  0  0  0  0  0  0
   -1.2500   -2.1175    0.4846 H   0  0  0  0  0  0  0  0  0  0  0  0
   -3.2435    2.3693   -0.2306 H   0  0  0  0  0  0  0  0  0  0  0  0
   -3.6258   -1.7353    0.9816 H   0  0  0  0  0  0  0  0  0  0  0  0
   -4.6349    0.5027    0.6255 H   0  0  0  0  0  0  0  0  0  0  0  0
  1  4  1  0  0  0  0
  1  5  1  0  0  0  0
  2  3  1  0  0  0  0
  2  5  1  0  0  0  0
  2  6  1  0  0  0  0
  2  7  1  0  0  0  0
  3  4  1  0  0  0  0
  3 14  1  0  0  0  0
  3 15  1  0  0  0  0
  4  8  1  0  0  0  0
  4 16  1  0  0  0  0
  5 17  1  0  0  0  0
  5 18  1  0  0  0  0
  6  9  2  0  0  0  0
  6 10  1  0  0  0  0
  7 19  1  0  0  0  0
  7 20  1  0  0  0  0
  7 21  1  0  0  0  0
  8 22  1  0  0  0  0
  8 23  1  0  0  0  0
  8 24  1  0  0  0  0
  9 11  1  0  0  0  0
  9 25  1  0  0  0  0
 10 12  2  0  0  0  0
 10 26  1  0  0  0  0
 11 13  2  0  0  0  0
 11 27  1  0  0  0  0
 12 13  1  0  0  0  0
 12 28  1  0  0  0  0
 13 29  1  0  0  0  0
M  END
> <PUBCHEM_COMPOUND_CID>
113514

> <PUBCHEM_CONFORMER_RMSD>
0.6

> <PUBCHEM_CONFORMER_DIVERSEORDER>
1
5
3
2
8
6
4
7

> <PUBCHEM_MMFF94_PARTIAL_CHARGES>
15
1 -0.56
10 -0.15
11 -0.15
12 -0.15
13 -0.15
2 0.14
25 0.15
26 0.15
27 0.15
28 0.15
29 0.15
4 0.28
5 0.28
6 -0.14
9 -0.15

> <PUBCHEM_EFFECTIVE_ROTOR_COUNT>
2

> <PUBCHEM_PHARMACOPHORE_FEATURES>
3
1 1 acceptor
5 1 2 3 4 5 rings
6 6 9 10 11 12 13 rings

> <PUBCHEM_HEAVY_ATOM_COUNT>
13

> <PUBCHEM_ATOM_DEF_STEREO_COUNT>
0

> <PUBCHEM_ATOM_UDEF_STEREO_COUNT>
2

> <PUBCHEM_BOND_DEF_STEREO_COUNT>
0

> <PUBCHEM_BOND_UDEF_STEREO_COUNT>
0

> <PUBCHEM_ISOTOPIC_ATOM_COUNT>
0

> <PUBCHEM_COMPONENT_COUNT>
1

> <PUBCHEM_CACTVS_TAUTO_COUNT>
1

> <PUBCHEM_CONFORMER_ID>
0001BB6A00000001

> <PUBCHEM_MMFF94_ENERGY>
41.9106

> <PUBCHEM_FEATURE_SELFOVERLAP>
15.223

> <PUBCHEM_SHAPE_FINGERPRINT>
10219947 1 17775287149033260844
10608611 8 18410290272560511545
107287 299 17346325877158660847
11031198 65 16702306728182205685
11132069 177 18334856142737952657
12119455 92 17775000198226396932
12251169 10 18261111902110504313
12382932 28 18408605846637661145
12696612 119 18334583463801698765
12932764 1 18413393132996860335
13296909 8 17676759916437256077
13581323 91 17821734935575089913
13705890 14 8935000378223341216
14144814 61 18261111850723715345
14325111 11 18408040697507925345
14993402 34 12535632652572217313
15219456 202 18201729413682480446
15309172 13 17560803250981275903
15775835 57 18059571433824441128
16945 1 18335421334632498118
17804303 29 17972039145570568450
18175812 5 18343023285107417060
200 152 18339347665534504567
20361792 2 14706926245914201550
20528008 55 18408036308425823705
20559304 39 17749687241262849149
20645464 45 18342464707773607191
20653085 51 12607402242903609058
20711985 327 16008748022028108830
20871998 184 18270688683286599287
21119208 17 11312064252709630712
21501925 9 18040719211934118963
22445834 79 17822007554202915443
23402539 116 18339632434835514255
23557571 272 18269853024342078615
23559900 14 18261954046929973322
2748010 2 18190468168699508351
3248919 1 16805335396058835059
369184 2 18334576824240798571
57812782 119 17821727238941077873
69090 78 18409725145675583295
7364860 26 18267868281020745178

> <PUBCHEM_SHAPE_MULTIPOLES>
261.66
5.93
1.48
1.07
0.35
0.11
-0.42
1.6
1.86
-0.06
0.07
0.33
-0.25
0.43

> <PUBCHEM_SHAPE_SELFOVERLAP>
549.909

> <PUBCHEM_SHAPE_VOLUME>
149.5

> <PUBCHEM_COORDINATE_TYPE>
2
5
10

$$$$
