11357212
  -OEChem-11232109133D

 46 47  0     1  0  0  0  0  0999 V2000
   -2.2139   -1.6780   -0.7452 O   0  0  0  0  0  0  0  0  0  0  0  0
   -3.8494    0.7740   -0.2492 O   0  0  0  0  0  0  0  0  0  0  0  0
   -0.3756   -0.1518   -0.0925 C   0  0  0  0  0  0  0  0  0  0  0  0
    0.3361    1.1541   -0.5762 C   0  0  0  0  0  0  0  0  0  0  0  0
    0.5657   -1.3466   -0.3996 C   0  0  0  0  0  0  0  0  0  0  0  0
   -0.8189   -0.0461    1.4117 C   0  0  1  0  0  0  0  0  0  0  0  0
    1.7237    1.4585    0.0450 C   0  0  0  0  0  0  0  0  0  0  0  0
    2.0756   -1.1469   -0.0788 C   0  0  0  0  0  0  0  0  0  0  0  0
   -1.7625   -0.3297   -0.8270 C   0  0  2  0  0  0  0  0  0  0  0  0
    2.3765    0.1904    0.6410 C   0  0  0  0  0  0  0  0  0  0  0  0
   -2.0807    0.8298    1.3798 C   0  0  0  0  0  0  0  0  0  0  0  0
   -2.7052    0.4632    0.0607 C   0  0  0  0  0  0  0  0  0  0  0  0
   -1.1163   -1.3609    2.1458 C   0  0  0  0  0  0  0  0  0  0  0  0
    1.6048    2.5360    1.1504 C   0  0  0  0  0  0  0  0  0  0  0  0
    2.6347    2.0936   -1.0331 C   0  0  0  0  0  0  0  0  0  0  0  0
    2.8845   -1.2658   -1.3884 C   0  0  0  0  0  0  0  0  0  0  0  0
    2.5621   -2.2936    0.8377 C   0  0  0  0  0  0  0  0  0  0  0  0
   -1.8412    0.1200   -2.2821 C   0  0  0  0  0  0  0  0  0  0  0  0
   -0.3225    2.0232   -0.4569 H   0  0  0  0  0  0  0  0  0  0  0  0
    0.4834    1.0569   -1.6603 H   0  0  0  0  0  0  0  0  0  0  0  0
    0.4724   -1.5704   -1.4717 H   0  0  0  0  0  0  0  0  0  0  0  0
    0.1947   -2.2590    0.0810 H   0  0  0  0  0  0  0  0  0  0  0  0
   -0.0677    0.4541    2.0211 H   0  0  0  0  0  0  0  0  0  0  0  0
    3.4637    0.3346    0.7127 H   0  0  0  0  0  0  0  0  0  0  0  0
    2.0509    0.0875    1.6846 H   0  0  0  0  0  0  0  0  0  0  0  0
   -1.8272    1.8939    1.3636 H   0  0  0  0  0  0  0  0  0  0  0  0
   -2.7677    0.6228    2.2042 H   0  0  0  0  0  0  0  0  0  0  0  0
   -1.4643   -1.1512    3.1641 H   0  0  0  0  0  0  0  0  0  0  0  0
   -1.8911   -1.9576    1.6594 H   0  0  0  0  0  0  0  0  0  0  0  0
   -0.2177   -1.9742    2.2446 H   0  0  0  0  0  0  0  0  0  0  0  0
    0.9697    2.2244    1.9816 H   0  0  0  0  0  0  0  0  0  0  0  0
    2.5894    2.7749    1.5696 H   0  0  0  0  0  0  0  0  0  0  0  0
    1.1816    3.4658    0.7524 H   0  0  0  0  0  0  0  0  0  0  0  0
    3.6290    2.3183   -0.6301 H   0  0  0  0  0  0  0  0  0  0  0  0
    2.7722    1.4495   -1.9031 H   0  0  0  0  0  0  0  0  0  0  0  0
    2.2074    3.0344   -1.4003 H   0  0  0  0  0  0  0  0  0  0  0  0
    2.4902   -0.6146   -2.1727 H   0  0  0  0  0  0  0  0  0  0  0  0
    3.9394   -1.0157   -1.2319 H   0  0  0  0  0  0  0  0  0  0  0  0
    2.8440   -2.2881   -1.7836 H   0  0  0  0  0  0  0  0  0  0  0  0
    2.3814   -3.2735    0.3811 H   0  0  0  0  0  0  0  0  0  0  0  0
    3.6374   -2.2120    1.0346 H   0  0  0  0  0  0  0  0  0  0  0  0
    2.0483   -2.2785    1.8043 H   0  0  0  0  0  0  0  0  0  0  0  0
   -2.8193   -0.1236   -2.7141 H   0  0  0  0  0  0  0  0  0  0  0  0
   -1.7046    1.2002   -2.3931 H   0  0  0  0  0  0  0  0  0  0  0  0
   -1.0970   -0.3996   -2.8945 H   0  0  0  0  0  0  0  0  0  0  0  0
   -3.0876   -1.7354   -1.1684 H   0  0  0  0  0  0  0  0  0  0  0  0
  1  9  1  0  0  0  0
  1 46  1  0  0  0  0
  2 12  2  0  0  0  0
  3  4  1  0  0  0  0
  3  5  1  0  0  0  0
  3  6  1  0  0  0  0
  3  9  1  0  0  0  0
  4  7  1  0  0  0  0
  4 19  1  0  0  0  0
  4 20  1  0  0  0  0
  5  8  1  0  0  0  0
  5 21  1  0  0  0  0
  5 22  1  0  0  0  0
  6 11  1  0  0  0  0
  6 13  1  0  0  0  0
  6 23  1  0  0  0  0
  7 10  1  0  0  0  0
  7 14  1  0  0  0  0
  7 15  1  0  0  0  0
  8 10  1  0  0  0  0
  8 16  1  0  0  0  0
  8 17  1  0  0  0  0
  9 12  1  0  0  0  0
  9 18  1  0  0  0  0
 10 24  1  0  0  0  0
 10 25  1  0  0  0  0
 11 12  1  0  0  0  0
 11 26  1  0  0  0  0
 11 27  1  0  0  0  0
 13 28  1  0  0  0  0
 13 29  1  0  0  0  0
 13 30  1  0  0  0  0
 14 31  1  0  0  0  0
 14 32  1  0  0  0  0
 14 33  1  0  0  0  0
 15 34  1  0  0  0  0
 15 35  1  0  0  0  0
 15 36  1  0  0  0  0
 16 37  1  0  0  0  0
 16 38  1  0  0  0  0
 16 39  1  0  0  0  0
 17 40  1  0  0  0  0
 17 41  1  0  0  0  0
 17 42  1  0  0  0  0
 18 43  1  0  0  0  0
 18 44  1  0  0  0  0
 18 45  1  0  0  0  0
M  END
> <PUBCHEM_COMPOUND_CID>
11357212

> <PUBCHEM_CONFORMER_RMSD>
0.6

> <PUBCHEM_CONFORMER_DIVERSEORDER>
2
1
4
3
5

> <PUBCHEM_MMFF94_PARTIAL_CHARGES>
6
1 -0.68
11 0.06
12 0.45
2 -0.57
46 0.4
9 0.34

> <PUBCHEM_EFFECTIVE_ROTOR_COUNT>
1.6

> <PUBCHEM_PHARMACOPHORE_FEATURES>
7
1 1 acceptor
1 1 donor
1 2 acceptor
3 7 14 15 hydrophobe
3 8 16 17 hydrophobe
5 3 6 9 11 12 rings
6 3 4 5 7 8 10 rings

> <PUBCHEM_HEAVY_ATOM_COUNT>
18

> <PUBCHEM_ATOM_DEF_STEREO_COUNT>
2

> <PUBCHEM_ATOM_UDEF_STEREO_COUNT>
0

> <PUBCHEM_BOND_DEF_STEREO_COUNT>
0

> <PUBCHEM_BOND_UDEF_STEREO_COUNT>
0

> <PUBCHEM_ISOTOPIC_ATOM_COUNT>
0

> <PUBCHEM_COMPONENT_COUNT>
1

> <PUBCHEM_CACTVS_TAUTO_COUNT>
2

> <PUBCHEM_CONFORMER_ID>
00AD4C1C00000002

> <PUBCHEM_MMFF94_ENERGY>
77.0166

> <PUBCHEM_FEATURE_SELFOVERLAP>
35.528

> <PUBCHEM_SHAPE_FINGERPRINT>
104564 63 17836943200153950720
10863032 1 18271242828477357783
12202030 40 17530978985208910970
12326174 3 18410295813595454350
12423570 1 15157847346471182945
12491281 212 18341618148102577273
13538477 17 17632293497267087373
13898156 1 17203337735861881936
14115302 16 17417519246894470575
14181834 199 18127383787924452244
14817 1 15952661719384306272
14993402 34 18058176024550969591
15775835 57 18272375325037716356
15852999 172 17606939948678407554
16752209 62 16415488125403780281
16945 1 18337942381693245879
18186145 218 18187359905325884045
18981168 100 17897466075123285356
19765921 60 17056384845598028848
20361792 2 18196650701176481382
20559304 39 17918274242352764000
20645476 183 17703792556683567061
21501502 16 18335135457388343871
21524375 3 18051407672079529060
21947302 44 18260541251296526080
22112679 90 17703801279741182152
22344851 262 17845367747997204539
22802520 49 17532083912885360252
23175994 123 17898012335171657642
23419403 2 17251805325665044174
23493267 7 17273716410246553581
23526113 38 17677615254726449058
23598291 2 17988374684429521169
2748010 2 18116728502270239322
3286 77 18187081707303835563
5337951 7 18041000622291108930
5845 1 11460630328827729340
63268167 104 18342462547104578368
6992083 37 17201939024006628834
7364860 26 17988922301529030768
74978 22 18272375269176417071
77492 1 17846779589831199597
81228 2 17689726259858833664

> <PUBCHEM_SHAPE_MULTIPOLES>
358.69
4.73
2.31
1.8
1.11
0.34
0.04
0.09
0.77
-2.01
-0.42
0.63
-0.17
0.05

> <PUBCHEM_SHAPE_SELFOVERLAP>
738.405

> <PUBCHEM_SHAPE_VOLUME>
208.4

> <PUBCHEM_COORDINATE_TYPE>
2
5
10

$$$$
