113640
  -OEChem-11232109153D

 32 31  0     0  0  0  0  0  0999 V2000
    4.1057   -0.4548    0.0104 O   0  0  0  0  0  0  0  0  0  0  0  0
   -4.4242    0.4826   -0.0052 O   0  0  0  0  0  0  0  0  0  0  0  0
   -3.3955   -1.5816    0.0311 O   0  0  0  0  0  0  0  0  0  0  0  0
    5.5379    1.3573    0.0553 O   0  0  0  0  0  0  0  0  0  0  0  0
    0.4626    0.4598   -0.1031 C   0  0  0  0  0  0  0  0  0  0  0  0
   -0.8119   -0.3899   -0.1021 C   0  0  0  0  0  0  0  0  0  0  0  0
    1.7127   -0.4177   -0.0733 C   0  0  0  0  0  0  0  0  0  0  0  0
   -2.0815    0.4613   -0.0981 C   0  0  0  0  0  0  0  0  0  0  0  0
    2.9847    0.4174   -0.0311 C   0  0  0  0  0  0  0  0  0  0  0  0
   -3.3496   -0.3605   -0.0262 C   0  0  0  0  0  0  0  0  0  0  0  0
   -5.7035   -0.1514    0.0935 C   0  0  0  0  0  0  0  0  0  0  0  0
    5.3312    0.1513    0.0515 C   0  0  0  0  0  0  0  0  0  0  0  0
   -6.7811    0.9118    0.1047 C   0  0  0  0  0  0  0  0  0  0  0  0
    6.4124   -0.8856    0.0926 C   0  0  0  0  0  0  0  0  0  0  0  0
    0.4786    1.0971   -0.9954 H   0  0  0  0  0  0  0  0  0  0  0  0
    0.4587    1.1239    0.7698 H   0  0  0  0  0  0  0  0  0  0  0  0
   -0.8116   -1.0450    0.7783 H   0  0  0  0  0  0  0  0  0  0  0  0
   -0.8171   -1.0484   -0.9798 H   0  0  0  0  0  0  0  0  0  0  0  0
    1.7366   -1.0751   -0.9513 H   0  0  0  0  0  0  0  0  0  0  0  0
    1.6888   -1.0832    0.7988 H   0  0  0  0  0  0  0  0  0  0  0  0
   -2.1186    1.0657   -1.0115 H   0  0  0  0  0  0  0  0  0  0  0  0
   -2.0672    1.1316    0.7691 H   0  0  0  0  0  0  0  0  0  0  0  0
    3.0470    1.0507   -0.9240 H   0  0  0  0  0  0  0  0  0  0  0  0
    2.9859    1.0546    0.8612 H   0  0  0  0  0  0  0  0  0  0  0  0
   -5.8486   -0.8164   -0.7651 H   0  0  0  0  0  0  0  0  0  0  0  0
   -5.7508   -0.7363    1.0188 H   0  0  0  0  0  0  0  0  0  0  0  0
   -7.7745    0.4610    0.1794 H   0  0  0  0  0  0  0  0  0  0  0  0
   -6.6388    1.5958    0.9479 H   0  0  0  0  0  0  0  0  0  0  0  0
   -6.7349    1.5168   -0.8067 H   0  0  0  0  0  0  0  0  0  0  0  0
    6.3652   -1.5058   -0.8059 H   0  0  0  0  0  0  0  0  0  0  0  0
    6.3033   -1.4990    0.9905 H   0  0  0  0  0  0  0  0  0  0  0  0
    7.3879   -0.3917    0.1243 H   0  0  0  0  0  0  0  0  0  0  0  0
  1  9  1  0  0  0  0
  1 12  1  0  0  0  0
  2 10  1  0  0  0  0
  2 11  1  0  0  0  0
  3 10  2  0  0  0  0
  4 12  2  0  0  0  0
  5  6  1  0  0  0  0
  5  7  1  0  0  0  0
  5 15  1  0  0  0  0
  5 16  1  0  0  0  0
  6  8  1  0  0  0  0
  6 17  1  0  0  0  0
  6 18  1  0  0  0  0
  7  9  1  0  0  0  0
  7 19  1  0  0  0  0
  7 20  1  0  0  0  0
  8 10  1  0  0  0  0
  8 21  1  0  0  0  0
  8 22  1  0  0  0  0
  9 23  1  0  0  0  0
  9 24  1  0  0  0  0
 11 13  1  0  0  0  0
 11 25  1  0  0  0  0
 11 26  1  0  0  0  0
 12 14  1  0  0  0  0
 13 27  1  0  0  0  0
 13 28  1  0  0  0  0
 13 29  1  0  0  0  0
 14 30  1  0  0  0  0
 14 31  1  0  0  0  0
 14 32  1  0  0  0  0
M  END
> <PUBCHEM_COMPOUND_CID>
113640

> <PUBCHEM_CONFORMER_RMSD>
0.8

> <PUBCHEM_CONFORMER_DIVERSEORDER>
1
57
121
42
207
128
357
11
186
61
209
324
335
131
41
208
64
174
49
97
32
230
353
72
126
81
53
90
149
155
168
228
254
21
259
275
180
319
26
86
219
83
253
167
112
256
188
322
306
297
262
214
9
197
63
252
10
340
245
157
359
316
201
52
232
147
141
288
289
100
314
337
304
24
117
279
89
191
34
237
74
165
336
30
185
192
239
358
267
206
82
203
3
264
137
248
73
38
101
346
148
118
347
238
47
229
342
222
261
133
257
333
281
132
213
221
98
59
4
199
243
13
17
45
231
338
136
150
37
258
7
135
224
106
27
305
104
226
303
80
88
55
50
96
115
43
325
23
99
14
124
120
103
51
339
294
171
190
60
250
92
12
152
270
172
269
123
312
251
170
107
110
48
220
352
345
290
5
35
91
138
332
235
71
36
244
285
114
260
329
217
349
144
87
215
317
274
95
39
25
154
234
176
277
20
153
350
293
6
111
22
282
105
2
29
225
351
183
169
70
344
68
175
179
246
291
266
125
28
19
31
328
158
216
66
241
343
236
160
249
287
348
233
247
321
283
65
307
44
164
16
181
140
93
310
354
196
159
8
85
33
301
122
116
189
272
195
309
145
318
311
302
210
134
198
79
323
78
212
286
242
142
113
255
129
139
280
69
62
320
296
108
84
127
227
18
278
67
177
202
54
166
223
356
298
205
46
355
204
187
173
162
58
265
184
240
75
94
326
178
151
313
15
130
40
211
143
271
334
76
308
102
200
295
156
341
161
299
194
193
56
119
292
182
276
218
300
327
331
109
77
315
330
263
146
284
163
273
268

> <PUBCHEM_MMFF94_PARTIAL_CHARGES>
10
1 -0.43
10 0.66
11 0.28
12 0.66
14 0.06
2 -0.43
3 -0.57
4 -0.57
8 0.06
9 0.28

> <PUBCHEM_EFFECTIVE_ROTOR_COUNT>
9

> <PUBCHEM_PHARMACOPHORE_FEATURES>
3
1 3 acceptor
1 4 acceptor
4 5 6 7 8 hydrophobe

> <PUBCHEM_HEAVY_ATOM_COUNT>
14

> <PUBCHEM_ATOM_DEF_STEREO_COUNT>
0

> <PUBCHEM_ATOM_UDEF_STEREO_COUNT>
0

> <PUBCHEM_BOND_DEF_STEREO_COUNT>
0

> <PUBCHEM_BOND_UDEF_STEREO_COUNT>
0

> <PUBCHEM_ISOTOPIC_ATOM_COUNT>
0

> <PUBCHEM_COMPONENT_COUNT>
1

> <PUBCHEM_CACTVS_TAUTO_COUNT>
1

> <PUBCHEM_CONFORMER_ID>
0001BBE800000001

> <PUBCHEM_MMFF94_ENERGY>
7.2092

> <PUBCHEM_FEATURE_SELFOVERLAP>
15.223

> <PUBCHEM_SHAPE_FINGERPRINT>
12091667 2 17312821572671330127
12815109 37 18410856559903592141
13533116 47 18059856108942684058
14123238 8 10087642602307491526
1420 363 15502376720584408456
14251764 18 18342177782884292011
14251764 46 18410854352026605931
15048467 5 18412544310357924761
17834072 33 18341049705133611804
17834076 25 18410855455838469259
20281389 69 18408884027316758145
20621476 8 18336547122917650909
20645477 70 16558479569440622734
20681677 155 18259983799297071387
20767249 213 18202002131785240293
21130983 4 18410859871107430841
220451 1 16950280715466630586
23035841 295 18113898251776407050
23218964 4 18412262830890860089
23402539 116 18201995551499678319
23521765 1 18341894082244122989
23536379 177 18409729556084601168
300161 21 18334570248392881675
3545911 37 18410573972271837015
42788 4 18410855464628896404
4463277 17 18408885139866067165
57583515 80 17418375787953672651
8209 1 18410855451543508469

> <PUBCHEM_SHAPE_MULTIPOLES>
264.64
18.67
1.06
0.59
0.8
0.07
0
-1.72
-1.08
0.08
-0.02
-0.02
0
-0.04

> <PUBCHEM_SHAPE_SELFOVERLAP>
491.607

> <PUBCHEM_SHAPE_VOLUME>
166

> <PUBCHEM_COORDINATE_TYPE>
2
5
10

$$$$
