11367306
  -OEChem-11232109063D

 29 30  0     1  0  0  0  0  0999 V2000
   -4.0640    0.5490   -0.2893 O   0  0  0  0  0  0  0  0  0  0  0  0
   -1.8771   -0.3024    0.1126 C   0  0  1  0  0  0  0  0  0  0  0  0
   -0.8180   -1.3554   -0.3214 C   0  0  0  0  0  0  0  0  0  0  0  0
   -1.2285    1.0848   -0.1584 C   0  0  0  0  0  0  0  0  0  0  0  0
    0.4649   -0.6001   -0.1636 C   0  0  0  0  0  0  0  0  0  0  0  0
    0.2336    0.7750   -0.0717 C   0  0  0  0  0  0  0  0  0  0  0  0
   -3.1711   -0.4666   -0.6915 C   0  0  0  0  0  0  0  0  0  0  0  0
   -2.1988   -0.4567    1.6126 C   0  0  0  0  0  0  0  0  0  0  0  0
    1.7525   -1.1104   -0.1447 C   0  0  0  0  0  0  0  0  0  0  0  0
    1.2848    1.6700    0.0408 C   0  0  0  0  0  0  0  0  0  0  0  0
    2.8183   -0.2167   -0.0201 C   0  0  0  0  0  0  0  0  0  0  0  0
    2.5860    1.1642    0.0720 C   0  0  0  0  0  0  0  0  0  0  0  0
    4.2174   -0.7346    0.0226 C   0  0  0  0  0  0  0  0  0  0  0  0
   -0.9369   -1.6440   -1.3718 H   0  0  0  0  0  0  0  0  0  0  0  0
   -0.8425   -2.2517    0.3065 H   0  0  0  0  0  0  0  0  0  0  0  0
   -1.5274    1.8365    0.5791 H   0  0  0  0  0  0  0  0  0  0  0  0
   -1.4549    1.4527   -1.1656 H   0  0  0  0  0  0  0  0  0  0  0  0
   -3.6328   -1.4426   -0.5062 H   0  0  0  0  0  0  0  0  0  0  0  0
   -2.9883   -0.3678   -1.7670 H   0  0  0  0  0  0  0  0  0  0  0  0
   -2.8812    0.3243    1.9650 H   0  0  0  0  0  0  0  0  0  0  0  0
   -2.6672   -1.4266    1.8150 H   0  0  0  0  0  0  0  0  0  0  0  0
   -1.2932   -0.3956    2.2267 H   0  0  0  0  0  0  0  0  0  0  0  0
    1.9216   -2.1798   -0.2226 H   0  0  0  0  0  0  0  0  0  0  0  0
    1.1076    2.7383    0.1030 H   0  0  0  0  0  0  0  0  0  0  0  0
    3.4196    1.8558    0.1676 H   0  0  0  0  0  0  0  0  0  0  0  0
   -4.8809    0.4350   -0.8041 H   0  0  0  0  0  0  0  0  0  0  0  0
    4.9142   -0.0246   -0.4356 H   0  0  0  0  0  0  0  0  0  0  0  0
    4.5221   -0.9074    1.0595 H   0  0  0  0  0  0  0  0  0  0  0  0
    4.3089   -1.6753   -0.5309 H   0  0  0  0  0  0  0  0  0  0  0  0
  1  7  1  0  0  0  0
  1 26  1  0  0  0  0
  2  3  1  0  0  0  0
  2  4  1  0  0  0  0
  2  7  1  0  0  0  0
  2  8  1  0  0  0  0
  3  5  1  0  0  0  0
  3 14  1  0  0  0  0
  3 15  1  0  0  0  0
  4  6  1  0  0  0  0
  4 16  1  0  0  0  0
  4 17  1  0  0  0  0
  5  6  2  0  0  0  0
  5  9  1  0  0  0  0
  6 10  1  0  0  0  0
  7 18  1  0  0  0  0
  7 19  1  0  0  0  0
  8 20  1  0  0  0  0
  8 21  1  0  0  0  0
  8 22  1  0  0  0  0
  9 11  2  0  0  0  0
  9 23  1  0  0  0  0
 10 12  2  0  0  0  0
 10 24  1  0  0  0  0
 11 12  1  0  0  0  0
 11 13  1  0  0  0  0
 12 25  1  0  0  0  0
 13 27  1  0  0  0  0
 13 28  1  0  0  0  0
 13 29  1  0  0  0  0
M  END
> <PUBCHEM_COMPOUND_CID>
11367306

> <PUBCHEM_CONFORMER_RMSD>
0.6

> <PUBCHEM_CONFORMER_DIVERSEORDER>
3
1
2
4

> <PUBCHEM_MMFF94_PARTIAL_CHARGES>
15
1 -0.68
10 -0.15
11 -0.14
12 -0.15
13 0.14
23 0.15
24 0.15
25 0.15
26 0.4
3 0.14
4 0.14
5 -0.14
6 -0.14
7 0.28
9 -0.15

> <PUBCHEM_EFFECTIVE_ROTOR_COUNT>
1.6

> <PUBCHEM_PHARMACOPHORE_FEATURES>
4
1 1 acceptor
1 1 donor
5 2 3 4 5 6 rings
6 5 6 9 10 11 12 rings

> <PUBCHEM_HEAVY_ATOM_COUNT>
13

> <PUBCHEM_ATOM_DEF_STEREO_COUNT>
0

> <PUBCHEM_ATOM_UDEF_STEREO_COUNT>
1

> <PUBCHEM_BOND_DEF_STEREO_COUNT>
0

> <PUBCHEM_BOND_UDEF_STEREO_COUNT>
0

> <PUBCHEM_ISOTOPIC_ATOM_COUNT>
0

> <PUBCHEM_COMPONENT_COUNT>
1

> <PUBCHEM_CACTVS_TAUTO_COUNT>
1

> <PUBCHEM_CONFORMER_ID>
00AD738A00000003

> <PUBCHEM_MMFF94_ENERGY>
39.7729

> <PUBCHEM_FEATURE_SELFOVERLAP>
20.378

> <PUBCHEM_SHAPE_FINGERPRINT>
10130415 120 18334571335103886832
10219947 1 18343304764600725342
10608611 8 18335696178317308573
11132069 177 18343014515106114194
11401426 45 18343292665419298726
11471102 20 18411131446205389588
12032990 46 18411143515464495782
124424 183 18186236217021321698
12500047 106 16950278511958458035
13296908 3 17968662725602140611
13571099 22 18412544331626890068
13581323 91 15213018267330817459
13690532 89 18413385432231404886
13922767 16 18341889692845763696
14115302 16 17385734581648681006
14144814 61 18343868831071505370
14325111 11 18340203093653812469
14911166 2 18410576175906675238
14943859 89 15140961746792074799
14993402 34 18272932725966965134
15219456 202 18115030821651370241
15309172 13 18272097092750699627
15653759 3 17676212402453657251
15775835 57 18271527605835753564
16945 1 18341624723586484182
17844478 74 18041289836619662257
18175812 5 18113339738355280478
18186145 218 17967801761222378717
200 152 17917985079664038527
20201158 50 18408041792846022058
20279233 1 18186802508380113178
20645477 70 18410853257105689174
20715346 28 18042128819889501337
23402539 116 18059282197662381365
23402655 69 18341039732283205253
23419403 2 15181965902657030990
23463225 33 18410573968488566214
23552423 10 18191303999373642180
23559900 14 17603587435547988650
25 1 18115295662704962365
2748010 2 18122911094697250646
369184 2 18411419548258492051
5084963 1 18060134349228200482
528886 8 18412537734393625546
63268167 104 18270121339085352776
7364860 26 18200029681113949760
74978 22 18340770463080998126
77492 1 17561089128499820889
8809292 202 18114185258518157130

> <PUBCHEM_SHAPE_MULTIPOLES>
261.66
6.09
1.45
0.87
0.36
0.27
0.29
-0.61
-0.2
0.51
-0.06
-0.59
-0.11
0.11

> <PUBCHEM_SHAPE_SELFOVERLAP>
556.719

> <PUBCHEM_SHAPE_VOLUME>
150.1

> <PUBCHEM_COORDINATE_TYPE>
2
5
10

$$$$
