1136
  -OEChem-11232109203D

 18 18  0     0  0  0  0  0  0999 V2000
   -0.9843   -1.7496   -0.0051 S   0  0  0  0  0  0  0  0  0  0  0  0
    2.3838    0.5618   -0.9383 O   0  0  0  0  0  0  0  0  0  0  0  0
   -1.9821    0.6144   -0.3192 N   0  0  0  0  0  0  0  0  0  0  0  0
    1.3621   -0.6088    0.9272 C   0  0  0  0  0  0  0  0  0  0  0  0
   -0.0365   -0.3990    0.3972 C   0  0  0  0  0  0  0  0  0  0  0  0
   -0.7017    0.7638    0.1768 C   0  0  0  0  0  0  0  0  0  0  0  0
    2.3986   -0.6491   -0.1925 C   0  0  0  0  0  0  0  0  0  0  0  0
   -0.2018    2.1343    0.4092 C   0  0  0  0  0  0  0  0  0  0  0  0
   -2.2381   -0.6678   -0.4552 C   0  0  0  0  0  0  0  0  0  0  0  0
    1.4167   -1.5361    1.5103 H   0  0  0  0  0  0  0  0  0  0  0  0
    1.6052    0.2077    1.6177 H   0  0  0  0  0  0  0  0  0  0  0  0
    2.1984   -1.4716   -0.8867 H   0  0  0  0  0  0  0  0  0  0  0  0
    3.4036   -0.7906    0.2180 H   0  0  0  0  0  0  0  0  0  0  0  0
   -1.0344    2.8394    0.5041 H   0  0  0  0  0  0  0  0  0  0  0  0
    0.3871    2.1996    1.3289 H   0  0  0  0  0  0  0  0  0  0  0  0
    0.4198    2.4636   -0.4286 H   0  0  0  0  0  0  0  0  0  0  0  0
   -3.1863   -1.0283   -0.8298 H   0  0  0  0  0  0  0  0  0  0  0  0
    2.6127    1.2824   -0.3267 H   0  0  0  0  0  0  0  0  0  0  0  0
  1  5  1  0  0  0  0
  1  9  1  0  0  0  0
  2  7  1  0  0  0  0
  2 18  1  0  0  0  0
  3  6  1  0  0  0  0
  3  9  2  0  0  0  0
  4  5  1  0  0  0  0
  4  7  1  0  0  0  0
  4 10  1  0  0  0  0
  4 11  1  0  0  0  0
  5  6  2  0  0  0  0
  6  8  1  0  0  0  0
  7 12  1  0  0  0  0
  7 13  1  0  0  0  0
  8 14  1  0  0  0  0
  8 15  1  0  0  0  0
  8 16  1  0  0  0  0
  9 17  1  0  0  0  0
M  END
> <PUBCHEM_COMPOUND_CID>
1136

> <PUBCHEM_CONFORMER_RMSD>
0.4

> <PUBCHEM_CONFORMER_DIVERSEORDER>
4
6
9
1
2
5
3
8
10
7

> <PUBCHEM_MMFF94_PARTIAL_CHARGES>
11
1 -0.08
17 0.15
18 0.4
2 -0.68
3 -0.57
4 0.18
5 -0.14
6 0.05
7 0.28
8 0.18
9 0.23

> <PUBCHEM_EFFECTIVE_ROTOR_COUNT>
2

> <PUBCHEM_PHARMACOPHORE_FEATURES>
4
1 2 acceptor
1 2 donor
1 3 acceptor
5 1 3 5 6 9 rings

> <PUBCHEM_HEAVY_ATOM_COUNT>
9

> <PUBCHEM_ATOM_DEF_STEREO_COUNT>
0

> <PUBCHEM_ATOM_UDEF_STEREO_COUNT>
0

> <PUBCHEM_BOND_DEF_STEREO_COUNT>
0

> <PUBCHEM_BOND_UDEF_STEREO_COUNT>
0

> <PUBCHEM_ISOTOPIC_ATOM_COUNT>
0

> <PUBCHEM_COMPONENT_COUNT>
1

> <PUBCHEM_CACTVS_TAUTO_COUNT>
1

> <PUBCHEM_CONFORMER_ID>
0000047000000004

> <PUBCHEM_MMFF94_ENERGY>
6.3212

> <PUBCHEM_FEATURE_SELFOVERLAP>
20.297

> <PUBCHEM_SHAPE_FINGERPRINT>
12423570 1 13724316262071625456
12897270 3 18341337764131748014
14128692 85 18127692849228302031
15310529 11 17095516284242078571
161256 15 17760086611417544299
16714656 1 18341612585945699595
16945 1 18337665442365555955
18185500 45 18333725801913943322
20653085 51 17168149992186786710
21040471 1 17765703629497006201
23211744 25 17898005982477014810
23552423 10 18190457160350682083
2748010 2 17328012686585896003
29004967 10 15338827664640806986
369184 2 10665231487763751014
5084963 1 18193551164717356346

> <PUBCHEM_SHAPE_MULTIPOLES>
178.21
3.07
1.84
0.85
1.04
0.6
0.01
-0.57
-0.82
-0.44
0.18
0.28
-0.01
-0.18

> <PUBCHEM_SHAPE_SELFOVERLAP>
344.574

> <PUBCHEM_SHAPE_VOLUME>
110.8

> <PUBCHEM_COORDINATE_TYPE>
2
5
10

$$$$
