11378760
  -OEChem-11232109013D

 29 29  0     1  0  0  0  0  0999 V2000
    2.1326    1.2305   -0.7569 O   0  0  0  0  0  0  0  0  0  0  0  0
    1.2138    2.0045    1.1890 O   0  0  0  0  0  0  0  0  0  0  0  0
    0.8274   -0.1658    0.4111 N   0  0  0  0  0  0  0  0  0  0  0  0
    1.3522   -0.9810   -0.6533 C   0  0  1  0  0  0  0  0  0  0  0  0
   -0.0458   -0.6923    1.4398 C   0  0  0  0  0  0  0  0  0  0  0  0
   -1.3908   -1.1224    0.8668 C   0  0  0  0  0  0  0  0  0  0  0  0
    1.9059    0.0786   -1.5884 C   0  0  0  0  0  0  0  0  0  0  0  0
   -2.1191    0.0528    0.2144 C   0  0  0  0  0  0  0  0  0  0  0  0
    2.4440   -1.9274   -0.1644 C   0  0  0  0  0  0  0  0  0  0  0  0
    1.3624    1.1046    0.3739 C   0  0  0  0  0  0  0  0  0  0  0  0
   -3.4847   -0.3702   -0.3265 C   0  0  0  0  0  0  0  0  0  0  0  0
   -4.1980    0.7881   -1.0056 C   0  0  0  0  0  0  0  0  0  0  0  0
    0.5597   -1.5504   -1.1479 H   0  0  0  0  0  0  0  0  0  0  0  0
    0.4540   -1.5412    1.9173 H   0  0  0  0  0  0  0  0  0  0  0  0
   -0.1938    0.0741    2.2090 H   0  0  0  0  0  0  0  0  0  0  0  0
   -1.2616   -1.9320    0.1396 H   0  0  0  0  0  0  0  0  0  0  0  0
   -2.0051   -1.5265    1.6805 H   0  0  0  0  0  0  0  0  0  0  0  0
    2.8385   -0.2125   -2.0807 H   0  0  0  0  0  0  0  0  0  0  0  0
    1.1772    0.3635   -2.3555 H   0  0  0  0  0  0  0  0  0  0  0  0
   -2.2487    0.8599    0.9458 H   0  0  0  0  0  0  0  0  0  0  0  0
   -1.5239    0.4581   -0.6121 H   0  0  0  0  0  0  0  0  0  0  0  0
    2.8876   -2.4724   -1.0041 H   0  0  0  0  0  0  0  0  0  0  0  0
    3.2448   -1.3876    0.3534 H   0  0  0  0  0  0  0  0  0  0  0  0
    2.0378   -2.6649    0.5354 H   0  0  0  0  0  0  0  0  0  0  0  0
   -3.3632   -1.1877   -1.0467 H   0  0  0  0  0  0  0  0  0  0  0  0
   -4.1085   -0.7482    0.4918 H   0  0  0  0  0  0  0  0  0  0  0  0
   -5.1728    0.4639   -1.3831 H   0  0  0  0  0  0  0  0  0  0  0  0
   -4.3620    1.6128   -0.3046 H   0  0  0  0  0  0  0  0  0  0  0  0
   -3.6151    1.1664   -1.8514 H   0  0  0  0  0  0  0  0  0  0  0  0
  1  7  1  0  0  0  0
  1 10  1  0  0  0  0
  2 10  2  0  0  0  0
  3  4  1  0  0  0  0
  3  5  1  0  0  0  0
  3 10  1  0  0  0  0
  4  7  1  0  0  0  0
  4  9  1  0  0  0  0
  4 13  1  0  0  0  0
  5  6  1  0  0  0  0
  5 14  1  0  0  0  0
  5 15  1  0  0  0  0
  6  8  1  0  0  0  0
  6 16  1  0  0  0  0
  6 17  1  0  0  0  0
  7 18  1  0  0  0  0
  7 19  1  0  0  0  0
  8 11  1  0  0  0  0
  8 20  1  0  0  0  0
  8 21  1  0  0  0  0
  9 22  1  0  0  0  0
  9 23  1  0  0  0  0
  9 24  1  0  0  0  0
 11 12  1  0  0  0  0
 11 25  1  0  0  0  0
 11 26  1  0  0  0  0
 12 27  1  0  0  0  0
 12 28  1  0  0  0  0
 12 29  1  0  0  0  0
M  END
> <PUBCHEM_COMPOUND_CID>
11378760

> <PUBCHEM_CONFORMER_RMSD>
0.6

> <PUBCHEM_CONFORMER_DIVERSEORDER>
1
21
4
43
39
44
29
38
3
33
40
30
46
7
5
41
9
23
49
37
45
18
2
16
6
48
13
26
17
10
42
22
15
27
8
25
20
12
24
47
34
19
32
31
11
36
14
35
28

> <PUBCHEM_MMFF94_PARTIAL_CHARGES>
7
1 -0.43
10 0.78
2 -0.57
3 -0.66
4 0.3
5 0.3
7 0.28

> <PUBCHEM_EFFECTIVE_ROTOR_COUNT>
4.8

> <PUBCHEM_PHARMACOPHORE_FEATURES>
3
1 12 hydrophobe
1 2 acceptor
5 1 3 4 7 10 rings

> <PUBCHEM_HEAVY_ATOM_COUNT>
12

> <PUBCHEM_ATOM_DEF_STEREO_COUNT>
0

> <PUBCHEM_ATOM_UDEF_STEREO_COUNT>
1

> <PUBCHEM_BOND_DEF_STEREO_COUNT>
0

> <PUBCHEM_BOND_UDEF_STEREO_COUNT>
0

> <PUBCHEM_ISOTOPIC_ATOM_COUNT>
0

> <PUBCHEM_COMPONENT_COUNT>
1

> <PUBCHEM_CACTVS_TAUTO_COUNT>
1

> <PUBCHEM_CONFORMER_ID>
00ADA04800000001

> <PUBCHEM_MMFF94_ENERGY>
10.7679

> <PUBCHEM_FEATURE_SELFOVERLAP>
15.223

> <PUBCHEM_SHAPE_FINGERPRINT>
12725867 57 18200584805177580320
12897270 3 18130231578785269921
12932764 1 18340495564137366299
13764800 53 16805617979501189609
13839132 238 17532099460561476279
14252887 29 11527657640020394215
15775835 57 15213304174492251261
16945 1 18189640313795363110
17357990 137 16081367487861334285
18186145 218 18113610150282109695
201361 129 11819276607434116543
21947302 44 18341047510004552881
22802520 49 17969241000146605875
230 275 17603574236506858857
23419403 2 17904444495500188312
251288 83 10807639091664242413
276578 36 12901555636685983182
549884 4 18408323259485953685
9882013 296 9222929479757389301

> <PUBCHEM_SHAPE_MULTIPOLES>
230.23
5.44
1.69
1.36
6.98
0.12
-0.02
0.49
2.36
-1.11
-0.3
-0.34
0.19
0.61

> <PUBCHEM_SHAPE_SELFOVERLAP>
445.953

> <PUBCHEM_SHAPE_VOLUME>
142.2

> <PUBCHEM_COORDINATE_TYPE>
2
5
10

$$$$
