114233
  -OEChem-11232109473D

 34 34  0     1  0  0  0  0  0999 V2000
   -3.5406   -1.2154   -0.0731 O   0  0  0  0  0  0  0  0  0  0  0  0
    1.4670    0.0086    0.2119 C   0  0  0  0  0  0  0  0  0  0  0  0
   -1.4751    0.0030   -0.2096 C   0  0  0  0  0  0  0  0  0  0  0  0
    0.7174    1.2725   -0.2286 C   0  0  0  0  0  0  0  0  0  0  0  0
    0.7249   -1.2527   -0.2476 C   0  0  0  0  0  0  0  0  0  0  0  0
   -0.7333    1.2644    0.2502 C   0  0  0  0  0  0  0  0  0  0  0  0
   -0.7257   -1.2606    0.2314 C   0  0  0  0  0  0  0  0  0  0  0  0
    2.8981    0.0166   -0.3218 C   0  0  0  0  0  0  0  0  0  0  0  0
   -2.9067   -0.0054    0.3228 C   0  0  1  0  0  0  0  0  0  0  0  0
    3.6485    1.2506    0.1736 C   0  0  0  0  0  0  0  0  0  0  0  0
    3.6309   -1.2585    0.0885 C   0  0  0  0  0  0  0  0  0  0  0  0
   -3.7053    1.1769   -0.1977 C   0  0  0  0  0  0  0  0  0  0  0  0
    1.4960   -0.0006    1.3111 H   0  0  0  0  0  0  0  0  0  0  0  0
   -1.5056   -0.0067   -1.3087 H   0  0  0  0  0  0  0  0  0  0  0  0
    0.7384    1.3623   -1.3222 H   0  0  0  0  0  0  0  0  0  0  0  0
    1.1865    2.1739    0.1790 H   0  0  0  0  0  0  0  0  0  0  0  0
    1.1962   -2.1579    0.1489 H   0  0  0  0  0  0  0  0  0  0  0  0
    0.7468   -1.3271   -1.3423 H   0  0  0  0  0  0  0  0  0  0  0  0
   -0.7546    1.3357    1.3453 H   0  0  0  0  0  0  0  0  0  0  0  0
   -1.2152    2.1669   -0.1400 H   0  0  0  0  0  0  0  0  0  0  0  0
   -1.2152   -2.1584   -0.1636 H   0  0  0  0  0  0  0  0  0  0  0  0
   -0.7443   -1.3436    1.3258 H   0  0  0  0  0  0  0  0  0  0  0  0
    2.8861    0.0530   -1.4193 H   0  0  0  0  0  0  0  0  0  0  0  0
   -2.9104    0.0119    1.4186 H   0  0  0  0  0  0  0  0  0  0  0  0
    3.5746    1.3577    1.2612 H   0  0  0  0  0  0  0  0  0  0  0  0
    4.7124    1.1829   -0.0804 H   0  0  0  0  0  0  0  0  0  0  0  0
    3.2812    2.1690   -0.2936 H   0  0  0  0  0  0  0  0  0  0  0  0
    3.5449   -1.4453    1.1643 H   0  0  0  0  0  0  0  0  0  0  0  0
    4.6982   -1.1831   -0.1491 H   0  0  0  0  0  0  0  0  0  0  0  0
    3.2612   -2.1357   -0.4511 H   0  0  0  0  0  0  0  0  0  0  0  0
   -4.7650    1.0547    0.0539 H   0  0  0  0  0  0  0  0  0  0  0  0
   -3.3721    2.1264    0.2292 H   0  0  0  0  0  0  0  0  0  0  0  0
   -3.6537    1.2420   -1.2902 H   0  0  0  0  0  0  0  0  0  0  0  0
   -3.5722   -1.2331   -1.0449 H   0  0  0  0  0  0  0  0  0  0  0  0
  1  9  1  0  0  0  0
  1 34  1  0  0  0  0
  2  4  1  0  0  0  0
  2  5  1  0  0  0  0
  2  8  1  0  0  0  0
  2 13  1  0  0  0  0
  3  6  1  0  0  0  0
  3  7  1  0  0  0  0
  3  9  1  0  0  0  0
  3 14  1  0  0  0  0
  4  6  1  0  0  0  0
  4 15  1  0  0  0  0
  4 16  1  0  0  0  0
  5  7  1  0  0  0  0
  5 17  1  0  0  0  0
  5 18  1  0  0  0  0
  6 19  1  0  0  0  0
  6 20  1  0  0  0  0
  7 21  1  0  0  0  0
  7 22  1  0  0  0  0
  8 10  1  0  0  0  0
  8 11  1  0  0  0  0
  8 23  1  0  0  0  0
  9 12  1  0  0  0  0
  9 24  1  0  0  0  0
 10 25  1  0  0  0  0
 10 26  1  0  0  0  0
 10 27  1  0  0  0  0
 11 28  1  0  0  0  0
 11 29  1  0  0  0  0
 11 30  1  0  0  0  0
 12 31  1  0  0  0  0
 12 32  1  0  0  0  0
 12 33  1  0  0  0  0
M  END
> <PUBCHEM_COMPOUND_CID>
114233

> <PUBCHEM_CONFORMER_RMSD>
0.6

> <PUBCHEM_CONFORMER_DIVERSEORDER>
1
17
18
3
4
16
15
7
8
5
11
9
13
14
10
12
2
6

> <PUBCHEM_MMFF94_PARTIAL_CHARGES>
3
1 -0.68
34 0.4
9 0.28

> <PUBCHEM_EFFECTIVE_ROTOR_COUNT>
3.2

> <PUBCHEM_PHARMACOPHORE_FEATURES>
4
1 1 acceptor
1 1 donor
3 8 10 11 hydrophobe
6 2 3 4 5 6 7 rings

> <PUBCHEM_HEAVY_ATOM_COUNT>
12

> <PUBCHEM_ATOM_DEF_STEREO_COUNT>
0

> <PUBCHEM_ATOM_UDEF_STEREO_COUNT>
1

> <PUBCHEM_BOND_DEF_STEREO_COUNT>
0

> <PUBCHEM_BOND_UDEF_STEREO_COUNT>
0

> <PUBCHEM_ISOTOPIC_ATOM_COUNT>
0

> <PUBCHEM_COMPONENT_COUNT>
1

> <PUBCHEM_CACTVS_TAUTO_COUNT>
1

> <PUBCHEM_CONFORMER_ID>
0001BE3900000001

> <PUBCHEM_MMFF94_ENERGY>
20.9687

> <PUBCHEM_FEATURE_SELFOVERLAP>
20.297

> <PUBCHEM_SHAPE_FINGERPRINT>
10130415 120 18335698326090626306
10219947 1 18411421708727268748
10608611 8 18410571786160214380
11062470 55 18410012134736245741
11132069 177 18411976944877300000
11401426 45 18412537695770509857
11471102 20 18411132515641709708
11806522 49 18267581484837770903
12032990 46 18410580582242576650
13296908 3 18410012134720213608
14144814 61 18410576192822670202
14325111 11 18410575093258314240
14993402 34 18409731780798565188
15196674 1 18410575088958046211
15536298 74 18342176665839321712
15775835 57 18410576184185295180
16945 1 18272379619999289280
18175812 5 18410573963724133172
18186145 218 18040150695449906974
193761 8 17546728613092702880
19422 9 18410859858179967146
20201158 50 18411983520503982519
20528008 55 18343016709702579160
20645476 183 17896340158263686942
20645477 70 18342737373371883254
22485316 2 18410853261115455748
23235685 24 18410851062087035876
23402539 116 18342448227846994614
23402655 69 18343300353352983317
23463225 33 18408886205065214982
23559900 14 18342455924908306826
2748010 2 18195249046809246196
3248919 1 17060064726390239966
3312278 4 18412829066789746577
5104073 3 18410575084689466651
528886 8 18411695470074565227
53655031 270 18338798892587424312
53812653 166 18413385440715818537

> <PUBCHEM_SHAPE_MULTIPOLES>
241.09
6.79
1.63
0.66
0.38
0.02
0
-0.3
0
-0.18
0.01
-0.02
-0.01
0.09

> <PUBCHEM_SHAPE_SELFOVERLAP>
465.815

> <PUBCHEM_SHAPE_VOLUME>
146.4

> <PUBCHEM_COORDINATE_TYPE>
2
5
10

$$$$
