11424363
  -OEChem-11232109263D

 23 24  0     0  0  0  0  0  0999 V2000
    2.6123    0.7367    1.2314 S   0  0  0  0  0  0  0  0  0  0  0  0
   -3.4968   -0.4184    1.2002 S   0  0  0  0  0  0  0  0  0  0  0  0
    0.0087   -0.5069   -0.0204 O   0  0  0  0  0  0  0  0  0  0  0  0
    1.1829   -1.3126    0.0602 C   0  0  0  0  0  0  0  0  0  0  0  0
   -1.1667   -1.3016    0.0151 C   0  0  0  0  0  0  0  0  0  0  0  0
    2.3860   -0.4526    0.0204 C   0  0  0  0  0  0  0  0  0  0  0  0
   -2.3669   -0.4053   -0.0727 C   0  0  0  0  0  0  0  0  0  0  0  0
    3.4149   -0.4599   -0.8955 C   0  0  0  0  0  0  0  0  0  0  0  0
   -2.6938    0.4581   -1.0775 C   0  0  0  0  0  0  0  0  0  0  0  0
    4.4021    0.5237   -0.5991 C   0  0  0  0  0  0  0  0  0  0  0  0
   -3.9149    1.1379   -0.8006 C   0  0  0  0  0  0  0  0  0  0  0  0
    4.0901    1.2454    0.5320 C   0  0  0  0  0  0  0  0  0  0  0  0
   -4.4578    0.7556    0.4064 C   0  0  0  0  0  0  0  0  0  0  0  0
    1.1939   -2.0166   -0.7809 H   0  0  0  0  0  0  0  0  0  0  0  0
    1.1697   -1.8948    0.9901 H   0  0  0  0  0  0  0  0  0  0  0  0
   -1.1767   -1.9005    0.9339 H   0  0  0  0  0  0  0  0  0  0  0  0
   -1.1732   -1.9880   -0.8407 H   0  0  0  0  0  0  0  0  0  0  0  0
    3.4620   -1.1362   -1.7397 H   0  0  0  0  0  0  0  0  0  0  0  0
   -2.1001    0.6057   -1.9704 H   0  0  0  0  0  0  0  0  0  0  0  0
    5.2956    0.6934   -1.1856 H   0  0  0  0  0  0  0  0  0  0  0  0
   -4.3720    1.8701   -1.4535 H   0  0  0  0  0  0  0  0  0  0  0  0
    4.6593    2.0471    0.9810 H   0  0  0  0  0  0  0  0  0  0  0  0
   -5.3729    1.1097    0.8599 H   0  0  0  0  0  0  0  0  0  0  0  0
  1  6  1  0  0  0  0
  1 12  1  0  0  0  0
  2  7  1  0  0  0  0
  2 13  1  0  0  0  0
  3  4  1  0  0  0  0
  3  5  1  0  0  0  0
  4  6  1  0  0  0  0
  4 14  1  0  0  0  0
  4 15  1  0  0  0  0
  5  7  1  0  0  0  0
  5 16  1  0  0  0  0
  5 17  1  0  0  0  0
  6  8  2  0  0  0  0
  7  9  2  0  0  0  0
  8 10  1  0  0  0  0
  8 18  1  0  0  0  0
  9 11  1  0  0  0  0
  9 19  1  0  0  0  0
 10 12  2  0  0  0  0
 10 20  1  0  0  0  0
 11 13  2  0  0  0  0
 11 21  1  0  0  0  0
 12 22  1  0  0  0  0
 13 23  1  0  0  0  0
M  END
> <PUBCHEM_COMPOUND_CID>
11424363

> <PUBCHEM_CONFORMER_RMSD>
0.6

> <PUBCHEM_CONFORMER_DIVERSEORDER>
2
30
14
28
6
24
3
21
31
9
23
13
1
27
5
11
10
29
4
12
25
8
16
26
7
18
22
15
19
20
17

> <PUBCHEM_MMFF94_PARTIAL_CHARGES>
19
1 -0.08
10 -0.15
11 -0.15
12 -0.11
13 -0.11
18 0.15
19 0.15
2 -0.08
20 0.15
21 0.15
22 0.15
23 0.15
3 -0.56
4 0.46
5 0.46
6 -0.14
7 -0.14
8 -0.15
9 -0.15

> <PUBCHEM_EFFECTIVE_ROTOR_COUNT>
4

> <PUBCHEM_PHARMACOPHORE_FEATURES>
3
1 3 acceptor
5 1 6 8 10 12 rings
5 2 7 9 11 13 rings

> <PUBCHEM_HEAVY_ATOM_COUNT>
13

> <PUBCHEM_ATOM_DEF_STEREO_COUNT>
0

> <PUBCHEM_ATOM_UDEF_STEREO_COUNT>
0

> <PUBCHEM_BOND_DEF_STEREO_COUNT>
0

> <PUBCHEM_BOND_UDEF_STEREO_COUNT>
0

> <PUBCHEM_ISOTOPIC_ATOM_COUNT>
0

> <PUBCHEM_COMPONENT_COUNT>
1

> <PUBCHEM_CACTVS_TAUTO_COUNT>
1

> <PUBCHEM_CONFORMER_ID>
00AE526B00000002

> <PUBCHEM_MMFF94_ENERGY>
15.6097

> <PUBCHEM_FEATURE_SELFOVERLAP>
15.223

> <PUBCHEM_SHAPE_FINGERPRINT>
10498660 4 18412255142852232789
11543360 7 15769485525553135166
12251169 10 15502378932519127967
12363563 72 9799692627227344010
13081056 2 18410576171337362173
14123260 362 17917719010750966409
1420 369 7925908197069509617
14252887 29 12324235058216675552
177051 138 8935002577040972286
17870717 6 12103853371156094025
1798214 55 18408882936405114260
18186145 218 18060138751728064394
19050596 39 15502377837217863581
19107657 162 9151174259463754236
20281475 54 9655301470475857770
20325693 3 14692574325617402921
20374829 77 11167940243198125597
20645477 56 18408887360089748791
20645477 70 17632589227562591854
20671657 53 11383829376744669635
20767249 442 18334007289764928374
20871999 31 16916491666614690063
21119208 17 15913610562004844509
212847 35 18410291385373350488
21501925 9 8286200548173198942
21503847 285 17240490217138595172
22646028 28 9511462233863906724
22926399 37 18131068217182495433
231179 274 18411697690725618562
23402539 116 15841557353613803192
23402655 69 17346883368715083344
23403322 49 10663821875513479413
23500284 214 18408042914001200627
23557571 272 18270972352632687871
23559900 14 17386571228314217475
25 1 18202003222454037666
26918003 58 11458422444706460213
27216 239 18259424130946297849
3082319 5 15841550786128869971
32948 21 14333135126337343411
4028521 119 18273211980577562825
42 15 12973882598082247863
4921388 177 16271642390643604119
53428517 29 16877939434269228727
548570 60 18409726265981669509
58051976 100 14549016581093765341
633830 44 17918000451046159159
90316 7 15357975604151942711
93112 12 16272203119634806478
9882013 296 15430037668691675275
9971528 1 16773798065875182386

> <PUBCHEM_SHAPE_MULTIPOLES>
269.36
10.32
1.31
1.15
0.13
0.04
-0.11
-3.88
0.29
0.11
-0.04
-0.22
-0.17
0.84

> <PUBCHEM_SHAPE_SELFOVERLAP>
538.509

> <PUBCHEM_SHAPE_VOLUME>
159.9

> <PUBCHEM_COORDINATE_TYPE>
2
5
10

$$$$
