11434978
  -OEChem-11232109433D

 18 18  0     0  0  0  0  0  0999 V2000
    0.9268   -0.6652   -0.0130 O   0  0  0  0  0  0  0  0  0  0  0  0
   -4.2454   -0.7595    0.0168 O   0  0  0  0  0  0  0  0  0  0  0  0
    2.2738   -0.4872    0.0020 C   0  0  0  0  0  0  0  0  0  0  0  0
    0.3707    0.5747   -0.0085 C   0  0  0  0  0  0  0  0  0  0  0  0
    2.5839    0.8528    0.0159 C   0  0  0  0  0  0  0  0  0  0  0  0
    1.3480    1.5425    0.0090 C   0  0  0  0  0  0  0  0  0  0  0  0
    3.0910   -1.7086    0.0009 C   0  0  0  0  0  0  0  0  0  0  0  0
   -1.0296    0.7708   -0.0210 C   0  0  0  0  0  0  0  0  0  0  0  0
   -1.9398   -0.2272   -0.0017 C   0  0  0  0  0  0  0  0  0  0  0  0
   -3.3793    0.1070   -0.0004 C   0  0  0  0  0  0  0  0  0  0  0  0
    3.5756    1.2818    0.0294 H   0  0  0  0  0  0  0  0  0  0  0  0
    1.1990    2.6135    0.0162 H   0  0  0  0  0  0  0  0  0  0  0  0
    4.1591   -1.4696    0.0095 H   0  0  0  0  0  0  0  0  0  0  0  0
    2.8730   -2.3178    0.8835 H   0  0  0  0  0  0  0  0  0  0  0  0
    2.8851   -2.3083   -0.8910 H   0  0  0  0  0  0  0  0  0  0  0  0
   -1.3799    1.8008   -0.0378 H   0  0  0  0  0  0  0  0  0  0  0  0
   -1.6657   -1.2758    0.0192 H   0  0  0  0  0  0  0  0  0  0  0  0
   -3.6314    1.1803   -0.0174 H   0  0  0  0  0  0  0  0  0  0  0  0
  1  3  1  0  0  0  0
  1  4  1  0  0  0  0
  2 10  2  0  0  0  0
  3  5  2  0  0  0  0
  3  7  1  0  0  0  0
  4  6  2  0  0  0  0
  4  8  1  0  0  0  0
  5  6  1  0  0  0  0
  5 11  1  0  0  0  0
  6 12  1  0  0  0  0
  7 13  1  0  0  0  0
  7 14  1  0  0  0  0
  7 15  1  0  0  0  0
  8  9  2  0  0  0  0
  8 16  1  0  0  0  0
  9 10  1  0  0  0  0
  9 17  1  0  0  0  0
 10 18  1  0  0  0  0
M  END
> <PUBCHEM_COMPOUND_CID>
11434978

> <PUBCHEM_CONFORMER_RMSD>
0.4

> <PUBCHEM_CONFORMER_DIVERSEORDER>
1
2
7
8
3
4
6
5

> <PUBCHEM_MMFF94_PARTIAL_CHARGES>
15
1 -0.28
10 0.5
11 0.15
12 0.15
16 0.15
17 0.15
18 0.06
2 -0.57
3 -0.04
4 0.09
5 -0.15
6 -0.15
7 0.18
8 -0.11
9 -0.14

> <PUBCHEM_EFFECTIVE_ROTOR_COUNT>
2

> <PUBCHEM_PHARMACOPHORE_FEATURES>
3
1 1 acceptor
1 2 acceptor
5 1 3 4 5 6 rings

> <PUBCHEM_HEAVY_ATOM_COUNT>
10

> <PUBCHEM_ATOM_DEF_STEREO_COUNT>
0

> <PUBCHEM_ATOM_UDEF_STEREO_COUNT>
0

> <PUBCHEM_BOND_DEF_STEREO_COUNT>
1

> <PUBCHEM_BOND_UDEF_STEREO_COUNT>
0

> <PUBCHEM_ISOTOPIC_ATOM_COUNT>
0

> <PUBCHEM_COMPONENT_COUNT>
1

> <PUBCHEM_CACTVS_TAUTO_COUNT>
1

> <PUBCHEM_CONFORMER_ID>
00AE7BE200000001

> <PUBCHEM_MMFF94_ENERGY>
7.7595

> <PUBCHEM_FEATURE_SELFOVERLAP>
15.223

> <PUBCHEM_SHAPE_FINGERPRINT>
12032990 46 18339927000461138198
12932764 1 17632569483312867533
14252887 29 18059579044839175694
14325111 11 18410855477740710053
15477762 27 18408604785601189454
177051 138 18272932713198114055
18186145 218 17676482835502070213
20201158 50 18334296469892142091
20645477 70 18410569574747987855
20871998 22 18128541449199221566
21501925 9 18338506465871415802
22485316 2 18341608244139841343
23402655 69 18410851071199327189
581208 293 18410288159378150890

> <PUBCHEM_SHAPE_MULTIPOLES>
194.06
6.22
1.44
0.6
5.72
0.08
0
2.4
0.04
-1.21
0
-0.03
-0.01
0.01

> <PUBCHEM_SHAPE_SELFOVERLAP>
398.171

> <PUBCHEM_SHAPE_VOLUME>
113.1

> <PUBCHEM_COORDINATE_TYPE>
2
5
10

$$$$
