11435352
  -OEChem-11232108573D

 33 33  0     1  0  0  0  0  0999 V2000
    1.5408   -0.6508   -0.0548 O   0  0  0  0  0  0  0  0  0  0  0  0
    2.9404   -2.4153   -0.0533 O   0  0  0  0  0  0  0  0  0  0  0  0
    1.2933    0.7217    0.3264 C   0  0  2  0  0  0  0  0  0  0  0  0
   -0.0583    1.1204   -0.2508 C   0  0  0  0  0  0  0  0  0  0  0  0
    2.3920    1.6628   -0.1410 C   0  0  0  0  0  0  0  0  0  0  0  0
   -1.1730    0.2002    0.2464 C   0  0  0  0  0  0  0  0  0  0  0  0
    3.7195    1.1286    0.3556 C   0  0  0  0  0  0  0  0  0  0  0  0
   -2.5344    0.6244   -0.3094 C   0  0  0  0  0  0  0  0  0  0  0  0
    3.9488   -0.2572   -0.2103 C   0  0  0  0  0  0  0  0  0  0  0  0
   -3.6535   -0.2750    0.2202 C   0  0  0  0  0  0  0  0  0  0  0  0
    2.7802   -1.1967   -0.0577 C   0  0  0  0  0  0  0  0  0  0  0  0
   -5.0415    0.1217   -0.2872 C   0  0  0  0  0  0  0  0  0  0  0  0
   -6.1543   -0.7848    0.2159 C   0  0  0  0  0  0  0  0  0  0  0  0
    1.2335    0.7388    1.4222 H   0  0  0  0  0  0  0  0  0  0  0  0
   -0.0237    1.0647   -1.3463 H   0  0  0  0  0  0  0  0  0  0  0  0
   -0.2865    2.1585    0.0190 H   0  0  0  0  0  0  0  0  0  0  0  0
    2.2213    2.6754    0.2411 H   0  0  0  0  0  0  0  0  0  0  0  0
    2.4108    1.7190   -1.2365 H   0  0  0  0  0  0  0  0  0  0  0  0
   -0.9745   -0.8360   -0.0514 H   0  0  0  0  0  0  0  0  0  0  0  0
   -1.2033    0.2215    1.3427 H   0  0  0  0  0  0  0  0  0  0  0  0
    3.7198    1.0904    1.4519 H   0  0  0  0  0  0  0  0  0  0  0  0
    4.5346    1.7956    0.0544 H   0  0  0  0  0  0  0  0  0  0  0  0
   -2.5165    0.5820   -1.4051 H   0  0  0  0  0  0  0  0  0  0  0  0
   -2.7397    1.6644   -0.0285 H   0  0  0  0  0  0  0  0  0  0  0  0
    4.8163   -0.7042    0.2880 H   0  0  0  0  0  0  0  0  0  0  0  0
    4.1719   -0.1916   -1.2816 H   0  0  0  0  0  0  0  0  0  0  0  0
   -3.6537   -0.2469    1.3171 H   0  0  0  0  0  0  0  0  0  0  0  0
   -3.4493   -1.3134   -0.0694 H   0  0  0  0  0  0  0  0  0  0  0  0
   -5.2585    1.1522    0.0181 H   0  0  0  0  0  0  0  0  0  0  0  0
   -5.0443    0.1082   -1.3836 H   0  0  0  0  0  0  0  0  0  0  0  0
   -7.1210   -0.4548   -0.1770 H   0  0  0  0  0  0  0  0  0  0  0  0
   -6.2063   -0.7685    1.3091 H   0  0  0  0  0  0  0  0  0  0  0  0
   -5.9904   -1.8184   -0.1049 H   0  0  0  0  0  0  0  0  0  0  0  0
  1  3  1  0  0  0  0
  1 11  1  0  0  0  0
  2 11  2  0  0  0  0
  3  4  1  0  0  0  0
  3  5  1  0  0  0  0
  3 14  1  0  0  0  0
  4  6  1  0  0  0  0
  4 15  1  0  0  0  0
  4 16  1  0  0  0  0
  5  7  1  0  0  0  0
  5 17  1  0  0  0  0
  5 18  1  0  0  0  0
  6  8  1  0  0  0  0
  6 19  1  0  0  0  0
  6 20  1  0  0  0  0
  7  9  1  0  0  0  0
  7 21  1  0  0  0  0
  7 22  1  0  0  0  0
  8 10  1  0  0  0  0
  8 23  1  0  0  0  0
  8 24  1  0  0  0  0
  9 11  1  0  0  0  0
  9 25  1  0  0  0  0
  9 26  1  0  0  0  0
 10 12  1  0  0  0  0
 10 27  1  0  0  0  0
 10 28  1  0  0  0  0
 12 13  1  0  0  0  0
 12 29  1  0  0  0  0
 12 30  1  0  0  0  0
 13 31  1  0  0  0  0
 13 32  1  0  0  0  0
 13 33  1  0  0  0  0
M  END
> <PUBCHEM_COMPOUND_CID>
11435352

> <PUBCHEM_CONFORMER_RMSD>
0.6

> <PUBCHEM_CONFORMER_DIVERSEORDER>
1
132
61
131
39
117
142
40
136
5
144
33
138
9
106
139
2
133
130
18
20
126
6
4
128
135
31
27
140
101
143
11
127
37
64
21
115
45
93
26
122
12
134
85
41
72
80
141
100
29
124
70
28
114
77
8
24
129
60
118
43
7
104
125
59
73
17
19
49
62
120
48
51
74
58
35
121
78
10
66
63
119
109
46
86
50
113
97
54
76
137
57
68
42
123
14
102
47
112
36
15
13
103
111
90
116
84
3
65
38
91
69
67
105
95
16
92
75
23
79
32
44
83
107
22
25
87
55
99
53
94
56
82
88
30
71
34
52
108
98
81
89
96
110

> <PUBCHEM_MMFF94_PARTIAL_CHARGES>
5
1 -0.43
11 0.66
2 -0.57
3 0.28
9 0.06

> <PUBCHEM_EFFECTIVE_ROTOR_COUNT>
6

> <PUBCHEM_PHARMACOPHORE_FEATURES>
4
1 13 hydrophobe
1 2 acceptor
5 4 6 8 10 12 hydrophobe
6 1 3 5 7 9 11 rings

> <PUBCHEM_HEAVY_ATOM_COUNT>
13

> <PUBCHEM_ATOM_DEF_STEREO_COUNT>
1

> <PUBCHEM_ATOM_UDEF_STEREO_COUNT>
0

> <PUBCHEM_BOND_DEF_STEREO_COUNT>
0

> <PUBCHEM_BOND_UDEF_STEREO_COUNT>
0

> <PUBCHEM_ISOTOPIC_ATOM_COUNT>
0

> <PUBCHEM_COMPONENT_COUNT>
1

> <PUBCHEM_CACTVS_TAUTO_COUNT>
1

> <PUBCHEM_CONFORMER_ID>
00AE7D5800000001

> <PUBCHEM_MMFF94_ENERGY>
9.2984

> <PUBCHEM_FEATURE_SELFOVERLAP>
20.297

> <PUBCHEM_SHAPE_FINGERPRINT>
10912923 1 17632580474714056617
11287383 113 18040717013095603185
11471102 20 18410575102212434088
12107183 9 17695357975591007713
12616999 72 18260274057523801324
13167823 11 18201717379854101519
13533116 47 18273215292414053643
13955234 65 18341610460026663400
14123238 8 18187645825636008949
14251717 144 18411138026137517362
14252887 29 18333733524286416121
14455015 7 18261401048758635971
15242433 33 18342457067063795455
15477762 27 18409450258920131460
17834072 33 18342455980510825077
17834074 16 18335986441002594787
200 152 18272651251433392001
20279233 1 17967256411844528441
20432913 95 18410298016908331267
20645477 70 18410292484626866151
21267235 1 18342183241339507870
22224240 67 18269825566901180680
22485316 2 18413386553629046373
23402655 69 18411980256344739909
23557571 272 17385998460281634581
2871803 45 18187364294350021827
33824 294 18408882936621678010
42 15 18413390930264173861
4214541 1 18410855430833985229
42630746 31 18342737447029690704
4990 188 17894347774537587057
5104073 3 18341328881997209097
522135 26 18411981364440851973
57483677 66 18343300397078044751
581208 293 18410571808035750160
77779 3 18410575068084862765
94968 8 18336830801513498438

> <PUBCHEM_SHAPE_MULTIPOLES>
255.8
11.61
1.63
0.66
17.53
0.62
0.01
2.63
0.2
-2.05
-0.05
0.05
-0.05
0.31

> <PUBCHEM_SHAPE_SELFOVERLAP>
488.879

> <PUBCHEM_SHAPE_VOLUME>
157

> <PUBCHEM_COORDINATE_TYPE>
2
5
10

$$$$
