11435769
  -OEChem-11232108513D

 37 38  0     1  0  0  0  0  0999 V2000
   -1.6071    1.4161   -1.3082 O   0  0  0  0  0  0  0  0  0  0  0  0
   -3.3724    0.4248    0.9012 O   0  0  0  0  0  0  0  0  0  0  0  0
    0.0061   -0.1187   -0.2078 C   0  0  0  0  0  0  0  0  0  0  0  0
   -0.7977   -1.3623   -0.7602 C   0  0  2  0  0  0  0  0  0  0  0  0
   -1.1823    0.9163   -0.0382 C   0  0  2  0  0  0  0  0  0  0  0  0
    1.0274    0.3181   -1.2975 C   0  0  0  0  0  0  0  0  0  0  0  0
    0.6905   -0.4267    1.1594 C   0  0  0  0  0  0  0  0  0  0  0  0
   -2.0873   -1.4235    0.0672 C   0  0  0  0  0  0  0  0  0  0  0  0
   -2.3380    0.0238    0.3805 C   0  0  0  0  0  0  0  0  0  0  0  0
    2.1050    1.3129   -0.8642 C   0  0  0  0  0  0  0  0  0  0  0  0
    2.0872   -1.0597    1.1171 C   0  0  0  0  0  0  0  0  0  0  0  0
   -0.0979   -2.7169   -0.7647 C   0  0  0  0  0  0  0  0  0  0  0  0
   -1.0077    2.0890    0.9180 C   0  0  0  0  0  0  0  0  0  0  0  0
    3.3649    0.6333   -0.3333 C   0  0  0  0  0  0  0  0  0  0  0  0
    3.2095   -0.0267    1.0307 C   0  0  0  0  0  0  0  0  0  0  0  0
   -1.0821   -1.1487   -1.8016 H   0  0  0  0  0  0  0  0  0  0  0  0
    0.4922    0.7558   -2.1486 H   0  0  0  0  0  0  0  0  0  0  0  0
    1.5228   -0.5648   -1.7196 H   0  0  0  0  0  0  0  0  0  0  0  0
    0.0414   -1.0823    1.7519 H   0  0  0  0  0  0  0  0  0  0  0  0
    0.7819    0.4881    1.7527 H   0  0  0  0  0  0  0  0  0  0  0  0
   -1.9647   -1.9766    1.0026 H   0  0  0  0  0  0  0  0  0  0  0  0
   -2.9143   -1.8392   -0.5144 H   0  0  0  0  0  0  0  0  0  0  0  0
    1.7291    2.0387   -0.1401 H   0  0  0  0  0  0  0  0  0  0  0  0
    2.4000    1.8896   -1.7505 H   0  0  0  0  0  0  0  0  0  0  0  0
    2.1890   -1.7977    0.3177 H   0  0  0  0  0  0  0  0  0  0  0  0
    2.2266   -1.6075    2.0582 H   0  0  0  0  0  0  0  0  0  0  0  0
    0.1554   -3.0533    0.2451 H   0  0  0  0  0  0  0  0  0  0  0  0
   -0.7551   -3.4776   -1.2013 H   0  0  0  0  0  0  0  0  0  0  0  0
    0.8149   -2.6951   -1.3661 H   0  0  0  0  0  0  0  0  0  0  0  0
   -1.8824    2.7506    0.8840 H   0  0  0  0  0  0  0  0  0  0  0  0
   -0.9000    1.7709    1.9591 H   0  0  0  0  0  0  0  0  0  0  0  0
   -0.1547    2.7115    0.6393 H   0  0  0  0  0  0  0  0  0  0  0  0
    4.1595    1.3861   -0.2578 H   0  0  0  0  0  0  0  0  0  0  0  0
    3.7185   -0.1089   -1.0598 H   0  0  0  0  0  0  0  0  0  0  0  0
    4.1566   -0.5243    1.2743 H   0  0  0  0  0  0  0  0  0  0  0  0
    3.0669    0.7448    1.7975 H   0  0  0  0  0  0  0  0  0  0  0  0
   -2.3601    2.0153   -1.1677 H   0  0  0  0  0  0  0  0  0  0  0  0
  1  5  1  0  0  0  0
  1 37  1  0  0  0  0
  2  9  2  0  0  0  0
  3  4  1  0  0  0  0
  3  5  1  0  0  0  0
  3  6  1  0  0  0  0
  3  7  1  0  0  0  0
  4  8  1  0  0  0  0
  4 12  1  0  0  0  0
  4 16  1  0  0  0  0
  5  9  1  0  0  0  0
  5 13  1  0  0  0  0
  6 10  1  0  0  0  0
  6 17  1  0  0  0  0
  6 18  1  0  0  0  0
  7 11  1  0  0  0  0
  7 19  1  0  0  0  0
  7 20  1  0  0  0  0
  8  9  1  0  0  0  0
  8 21  1  0  0  0  0
  8 22  1  0  0  0  0
 10 14  1  0  0  0  0
 10 23  1  0  0  0  0
 10 24  1  0  0  0  0
 11 15  1  0  0  0  0
 11 25  1  0  0  0  0
 11 26  1  0  0  0  0
 12 27  1  0  0  0  0
 12 28  1  0  0  0  0
 12 29  1  0  0  0  0
 13 30  1  0  0  0  0
 13 31  1  0  0  0  0
 13 32  1  0  0  0  0
 14 15  1  0  0  0  0
 14 33  1  0  0  0  0
 14 34  1  0  0  0  0
 15 35  1  0  0  0  0
 15 36  1  0  0  0  0
M  END
> <PUBCHEM_COMPOUND_CID>
11435769

> <PUBCHEM_CONFORMER_RMSD>
0.6

> <PUBCHEM_CONFORMER_DIVERSEORDER>
2
3
1
4

> <PUBCHEM_MMFF94_PARTIAL_CHARGES>
6
1 -0.68
2 -0.57
37 0.4
5 0.34
8 0.06
9 0.45

> <PUBCHEM_EFFECTIVE_ROTOR_COUNT>
1.8

> <PUBCHEM_PHARMACOPHORE_FEATURES>
5
1 1 acceptor
1 1 donor
1 2 acceptor
5 3 4 5 8 9 rings
7 3 6 7 10 11 14 15 rings

> <PUBCHEM_HEAVY_ATOM_COUNT>
15

> <PUBCHEM_ATOM_DEF_STEREO_COUNT>
2

> <PUBCHEM_ATOM_UDEF_STEREO_COUNT>
0

> <PUBCHEM_BOND_DEF_STEREO_COUNT>
0

> <PUBCHEM_BOND_UDEF_STEREO_COUNT>
0

> <PUBCHEM_ISOTOPIC_ATOM_COUNT>
0

> <PUBCHEM_COMPONENT_COUNT>
1

> <PUBCHEM_CACTVS_TAUTO_COUNT>
2

> <PUBCHEM_CONFORMER_ID>
00AE7EF900000002

> <PUBCHEM_MMFF94_ENERGY>
46.7005

> <PUBCHEM_FEATURE_SELFOVERLAP>
25.373

> <PUBCHEM_SHAPE_FINGERPRINT>
12423570 1 14610862000973795209
12932764 1 18261107508765220492
13024252 1 16370719365883920453
13172582 1 18412829117891413133
13538477 17 18336826502050651662
13581323 91 18272085011371355050
13898156 1 18336816610878196974
14817 1 14605900536410764390
14993402 34 18340766056713701335
15076042 46 18339638945420261938
15309172 13 18342742905352816995
15375462 478 17894910711173635112
15775835 57 18261401078238013244
16945 1 17967530194271106486
19868273 325 18199746023597078720
22112679 90 18267305528603833367
22344851 341 17043731790560887715
22445834 79 18040712546028811738
23236772 104 18115305712680456570
23402539 116 18060414720387968149
23419403 2 14881356885465991585
23557571 272 17701539743505584488
23559900 14 17917434255236912312
23598294 1 18269279139148876482
2748010 2 17833273013023318071
276578 36 17987812816765647603
305870 269 18055924186230329976
369184 2 17748824133103653484
5084963 1 18113902636953866352
528886 8 18059027149645894429
53812654 25 18267296719457136495
63268167 104 17822002108448030272
7364860 26 17769948882578404831
77492 1 18187926235117925886
81228 2 17841974874178760694

> <PUBCHEM_SHAPE_MULTIPOLES>
296.95
4.39
2.1
1.31
1.54
0.69
0.02
-0.79
-0.92
-0.72
0.28
0.34
-0.1
-0.57

> <PUBCHEM_SHAPE_SELFOVERLAP>
607.134

> <PUBCHEM_SHAPE_VOLUME>
171.5

> <PUBCHEM_COORDINATE_TYPE>
2
5
10

$$$$
