114454
  -OEChem-11232109023D

 32 32  0     1  0  0  0  0  0999 V2000
    3.0416   -1.9169    0.0522 O   0  0  0  0  0  0  0  0  0  0  0  0
    1.6238    0.0087    0.4693 C   0  0  1  0  0  0  0  0  0  0  0  0
    1.8563    1.4086   -0.1021 C   0  0  0  0  0  0  0  0  0  0  0  0
    0.3647   -0.6458   -0.0622 C   0  0  0  0  0  0  0  0  0  0  0  0
    3.3637    1.6052   -0.0023 C   0  0  0  0  0  0  0  0  0  0  0  0
    3.9497    0.2649   -0.4284 C   0  0  0  0  0  0  0  0  0  0  0  0
    2.8893   -0.7020    0.0349 C   0  0  0  0  0  0  0  0  0  0  0  0
   -0.8875    0.1199    0.3647 C   0  0  0  0  0  0  0  0  0  0  0  0
   -2.1545   -0.5251   -0.2017 C   0  0  0  0  0  0  0  0  0  0  0  0
   -3.4034    0.2653    0.1954 C   0  0  0  0  0  0  0  0  0  0  0  0
   -4.6986   -0.3249   -0.3664 C   0  0  0  0  0  0  0  0  0  0  0  0
   -5.9450    0.4422    0.0466 C   0  0  0  0  0  0  0  0  0  0  0  0
    1.6255    0.0428    1.5655 H   0  0  0  0  0  0  0  0  0  0  0  0
    1.3155    2.1787    0.4567 H   0  0  0  0  0  0  0  0  0  0  0  0
    1.5454    1.4681   -1.1528 H   0  0  0  0  0  0  0  0  0  0  0  0
    0.3034   -1.6774    0.3069 H   0  0  0  0  0  0  0  0  0  0  0  0
    0.4062   -0.7165   -1.1568 H   0  0  0  0  0  0  0  0  0  0  0  0
    3.6442    1.8261    1.0349 H   0  0  0  0  0  0  0  0  0  0  0  0
    3.7186    2.4275   -0.6303 H   0  0  0  0  0  0  0  0  0  0  0  0
    4.9077    0.0669    0.0568 H   0  0  0  0  0  0  0  0  0  0  0  0
    4.0409    0.1972   -1.5162 H   0  0  0  0  0  0  0  0  0  0  0  0
   -0.9465    0.1502    1.4594 H   0  0  0  0  0  0  0  0  0  0  0  0
   -0.8354    1.1571    0.0145 H   0  0  0  0  0  0  0  0  0  0  0  0
   -2.2401   -1.5556    0.1635 H   0  0  0  0  0  0  0  0  0  0  0  0
   -2.0869   -0.5732   -1.2953 H   0  0  0  0  0  0  0  0  0  0  0  0
   -3.3039    1.3011   -0.1526 H   0  0  0  0  0  0  0  0  0  0  0  0
   -3.4724    0.3047    1.2897 H   0  0  0  0  0  0  0  0  0  0  0  0
   -4.6423   -0.3468   -1.4612 H   0  0  0  0  0  0  0  0  0  0  0  0
   -4.7978   -1.3648   -0.0327 H   0  0  0  0  0  0  0  0  0  0  0  0
   -6.8379   -0.0229   -0.3827 H   0  0  0  0  0  0  0  0  0  0  0  0
   -5.8986    1.4786   -0.3023 H   0  0  0  0  0  0  0  0  0  0  0  0
   -6.0548    0.4510    1.1356 H   0  0  0  0  0  0  0  0  0  0  0  0
  1  7  2  0  0  0  0
  2  3  1  0  0  0  0
  2  4  1  0  0  0  0
  2  7  1  0  0  0  0
  2 13  1  0  0  0  0
  3  5  1  0  0  0  0
  3 14  1  0  0  0  0
  3 15  1  0  0  0  0
  4  8  1  0  0  0  0
  4 16  1  0  0  0  0
  4 17  1  0  0  0  0
  5  6  1  0  0  0  0
  5 18  1  0  0  0  0
  5 19  1  0  0  0  0
  6  7  1  0  0  0  0
  6 20  1  0  0  0  0
  6 21  1  0  0  0  0
  8  9  1  0  0  0  0
  8 22  1  0  0  0  0
  8 23  1  0  0  0  0
  9 10  1  0  0  0  0
  9 24  1  0  0  0  0
  9 25  1  0  0  0  0
 10 11  1  0  0  0  0
 10 26  1  0  0  0  0
 10 27  1  0  0  0  0
 11 12  1  0  0  0  0
 11 28  1  0  0  0  0
 11 29  1  0  0  0  0
 12 30  1  0  0  0  0
 12 31  1  0  0  0  0
 12 32  1  0  0  0  0
M  END
> <PUBCHEM_COMPOUND_CID>
114454

> <PUBCHEM_CONFORMER_RMSD>
0.6

> <PUBCHEM_CONFORMER_DIVERSEORDER>
1
102
109
42
104
110
78
11
44
50
68
5
108
6
90
100
7
91
16
103
22
59
99
36
107
29
31
25
95
9
70
2
64
13
27
96
54
106
79
35
3
98
48
32
94
4
85
47
105
49
8
75
39
28
53
58
12
101
84
88
38
20
34
61
19
37
69
14
76
60
10
17
62
45
63
67
15
18
23
71
46
65
97
24
56
43
89
77
26
83
33
55
21
72
52
87
51
82
40
73
30
92
41
80
57
74
93
66
86
81

> <PUBCHEM_MMFF94_PARTIAL_CHARGES>
4
1 -0.57
2 0.06
6 0.06
7 0.45

> <PUBCHEM_EFFECTIVE_ROTOR_COUNT>
5.8

> <PUBCHEM_PHARMACOPHORE_FEATURES>
4
1 1 acceptor
1 12 hydrophobe
5 2 3 5 6 7 rings
5 4 8 9 10 11 hydrophobe

> <PUBCHEM_HEAVY_ATOM_COUNT>
12

> <PUBCHEM_ATOM_DEF_STEREO_COUNT>
0

> <PUBCHEM_ATOM_UDEF_STEREO_COUNT>
1

> <PUBCHEM_BOND_DEF_STEREO_COUNT>
0

> <PUBCHEM_BOND_UDEF_STEREO_COUNT>
0

> <PUBCHEM_ISOTOPIC_ATOM_COUNT>
0

> <PUBCHEM_COMPONENT_COUNT>
1

> <PUBCHEM_CACTVS_TAUTO_COUNT>
3

> <PUBCHEM_CONFORMER_ID>
0001BF1600000001

> <PUBCHEM_MMFF94_ENERGY>
4.4337

> <PUBCHEM_FEATURE_SELFOVERLAP>
20.297

> <PUBCHEM_SHAPE_FINGERPRINT>
10912923 1 18060420218684461827
11287383 113 18260269681205340755
11471102 20 18409730673029383428
12346645 6 18413108368539366254
13081056 2 18259982661283595037
13167372 99 18270967822191484785
13167823 11 18343016710035213511
14123238 8 11674879996485243945
14251717 144 18411418388744305942
15242433 33 18342738533387371911
15477762 27 18412546475184978734
17834072 33 18342173401843732863
17834076 25 16660644064090439057
18186145 218 17894623760467075947
20279233 1 17749113300361510386
20606313 2 18409166631938147052
20645477 70 18411137995999315606
21119208 17 18131353024710864749
212847 35 18202562869672352865
22289505 5 18334852796942936532
22485316 2 18341891918076614431
23048698 100 18412829079500458323
23402539 116 17846774109954200445
23402655 69 18341332274752054549
23532345 1 18335706082574969312
3060560 45 18201445783286393286
3545911 37 18335704970230966121
4047638 21 18186802504269755608
42788 4 18410293614714571565
449060 50 18114463452477210277
522135 26 18410855451606896430
77779 3 18410293623172695819
8272917 22 18342179929550769511

> <PUBCHEM_SHAPE_MULTIPOLES>
241.09
11.06
1.36
0.67
15.56
0.03
0
-1.34
-0.86
-1.66
-0.01
0.01
-0.01
-0.17

> <PUBCHEM_SHAPE_SELFOVERLAP>
461.794

> <PUBCHEM_SHAPE_VOLUME>
149.5

> <PUBCHEM_COORDINATE_TYPE>
2
5
10

$$$$
