11447401
  -OEChem-11232109173D

 42 44  0     1  0  0  0  0  0999 V2000
   -0.3632   -2.5384    0.7767 O   0  0  0  0  0  0  0  0  0  0  0  0
   -1.0564    1.0008   -0.0584 C   0  0  2  0  0  0  0  0  0  0  0  0
   -1.5620   -0.3877    0.4514 C   0  0  2  0  0  0  0  0  0  0  0  0
   -0.2476    0.3256   -1.1988 C   0  0  1  0  0  0  0  0  0  0  0  0
    0.6668   -0.7102   -0.4757 C   0  0  2  0  0  0  0  0  0  0  0  0
   -0.2176   -1.1272    0.7314 C   0  0  2  0  0  0  0  0  0  0  0  0
   -2.2129   -1.0165   -0.8125 C   0  0  0  0  0  0  0  0  0  0  0  0
   -1.3167   -0.5084   -1.9488 C   0  0  0  0  0  0  0  0  0  0  0  0
    2.1024   -0.2263   -0.1173 C   0  0  0  0  0  0  0  0  0  0  0  0
   -0.2309    1.8088    0.9840 C   0  0  0  0  0  0  0  0  0  0  0  0
   -2.1694    1.9455   -0.5669 C   0  0  0  0  0  0  0  0  0  0  0  0
   -2.5144   -0.3910    1.6357 C   0  0  0  0  0  0  0  0  0  0  0  0
    2.1613    0.9455    0.8880 C   0  0  0  0  0  0  0  0  0  0  0  0
    1.2204    2.1161    0.6206 C   0  0  0  0  0  0  0  0  0  0  0  0
    2.8864   -1.4113    0.4999 C   0  0  0  0  0  0  0  0  0  0  0  0
    2.8539    0.1747   -1.4092 C   0  0  0  0  0  0  0  0  0  0  0  0
    0.2642    1.0083   -1.8780 H   0  0  0  0  0  0  0  0  0  0  0  0
    0.8022   -1.5805   -1.1350 H   0  0  0  0  0  0  0  0  0  0  0  0
    0.2131   -0.8203    1.6881 H   0  0  0  0  0  0  0  0  0  0  0  0
   -3.2449   -0.6771   -0.9558 H   0  0  0  0  0  0  0  0  0  0  0  0
   -2.2417   -2.1103   -0.7803 H   0  0  0  0  0  0  0  0  0  0  0  0
   -0.8841   -1.3317   -2.5269 H   0  0  0  0  0  0  0  0  0  0  0  0
   -1.8855    0.1085   -2.6524 H   0  0  0  0  0  0  0  0  0  0  0  0
   -0.2674    1.3393    1.9733 H   0  0  0  0  0  0  0  0  0  0  0  0
   -0.7153    2.7816    1.1482 H   0  0  0  0  0  0  0  0  0  0  0  0
   -1.7263    2.8130   -1.0700 H   0  0  0  0  0  0  0  0  0  0  0  0
   -2.8677    1.4944   -1.2743 H   0  0  0  0  0  0  0  0  0  0  0  0
   -2.7754    2.3152    0.2684 H   0  0  0  0  0  0  0  0  0  0  0  0
   -2.8348   -1.4100    1.8776 H   0  0  0  0  0  0  0  0  0  0  0  0
   -2.0489    0.0290    2.5323 H   0  0  0  0  0  0  0  0  0  0  0  0
   -3.4150    0.1941    1.4232 H   0  0  0  0  0  0  0  0  0  0  0  0
    3.1876    1.3380    0.9087 H   0  0  0  0  0  0  0  0  0  0  0  0
    1.9809    0.5793    1.9071 H   0  0  0  0  0  0  0  0  0  0  0  0
    1.3071    2.4898   -0.4043 H   0  0  0  0  0  0  0  0  0  0  0  0
    1.5479    2.9432    1.2649 H   0  0  0  0  0  0  0  0  0  0  0  0
    2.9155   -2.2669   -0.1844 H   0  0  0  0  0  0  0  0  0  0  0  0
    3.9226   -1.1284    0.7192 H   0  0  0  0  0  0  0  0  0  0  0  0
    2.4361   -1.7511    1.4385 H   0  0  0  0  0  0  0  0  0  0  0  0
    2.4401    1.0744   -1.8725 H   0  0  0  0  0  0  0  0  0  0  0  0
    3.9107    0.3812   -1.2024 H   0  0  0  0  0  0  0  0  0  0  0  0
    2.8180   -0.6303   -2.1521 H   0  0  0  0  0  0  0  0  0  0  0  0
   -0.9578   -2.7482    1.5164 H   0  0  0  0  0  0  0  0  0  0  0  0
  1  6  1  0  0  0  0
  1 42  1  0  0  0  0
  2  3  1  0  0  0  0
  2  4  1  0  0  0  0
  2 10  1  0  0  0  0
  2 11  1  0  0  0  0
  3  6  1  0  0  0  0
  3  7  1  0  0  0  0
  3 12  1  0  0  0  0
  4  5  1  0  0  0  0
  4  8  1  0  0  0  0
  4 17  1  0  0  0  0
  5  6  1  0  0  0  0
  5  9  1  0  0  0  0
  5 18  1  0  0  0  0
  6 19  1  0  0  0  0
  7  8  1  0  0  0  0
  7 20  1  0  0  0  0
  7 21  1  0  0  0  0
  8 22  1  0  0  0  0
  8 23  1  0  0  0  0
  9 13  1  0  0  0  0
  9 15  1  0  0  0  0
  9 16  1  0  0  0  0
 10 14  1  0  0  0  0
 10 24  1  0  0  0  0
 10 25  1  0  0  0  0
 11 26  1  0  0  0  0
 11 27  1  0  0  0  0
 11 28  1  0  0  0  0
 12 29  1  0  0  0  0
 12 30  1  0  0  0  0
 12 31  1  0  0  0  0
 13 14  1  0  0  0  0
 13 32  1  0  0  0  0
 13 33  1  0  0  0  0
 14 34  1  0  0  0  0
 14 35  1  0  0  0  0
 15 36  1  0  0  0  0
 15 37  1  0  0  0  0
 15 38  1  0  0  0  0
 16 39  1  0  0  0  0
 16 40  1  0  0  0  0
 16 41  1  0  0  0  0
M  END
> <PUBCHEM_COMPOUND_CID>
11447401

> <PUBCHEM_CONFORMER_RMSD>
0.6

> <PUBCHEM_CONFORMER_DIVERSEORDER>
1

> <PUBCHEM_MMFF94_PARTIAL_CHARGES>
3
1 -0.68
42 0.4
6 0.28

> <PUBCHEM_EFFECTIVE_ROTOR_COUNT>
1.4

> <PUBCHEM_PHARMACOPHORE_FEATURES>
5
1 1 acceptor
1 1 donor
3 9 15 16 hydrophobe
7 2 3 4 5 6 7 8 rings
7 2 4 5 9 10 13 14 rings

> <PUBCHEM_HEAVY_ATOM_COUNT>
16

> <PUBCHEM_ATOM_DEF_STEREO_COUNT>
5

> <PUBCHEM_ATOM_UDEF_STEREO_COUNT>
0

> <PUBCHEM_BOND_DEF_STEREO_COUNT>
0

> <PUBCHEM_BOND_UDEF_STEREO_COUNT>
0

> <PUBCHEM_ISOTOPIC_ATOM_COUNT>
0

> <PUBCHEM_COMPONENT_COUNT>
1

> <PUBCHEM_CACTVS_TAUTO_COUNT>
1

> <PUBCHEM_CONFORMER_ID>
00AEAC6900000001

> <PUBCHEM_MMFF94_ENERGY>
88.2068

> <PUBCHEM_FEATURE_SELFOVERLAP>
25.598

> <PUBCHEM_SHAPE_FINGERPRINT>
10863032 1 17749969759800645900
10948715 1 17898291593528505853
12423570 1 11588807236475291703
12491281 212 17273996776974067449
12524768 44 18125155197744873060
13024252 1 18186806854844812159
13172582 1 17632018546203313232
144361 1 17344603994768311053
14713566 1 17772169947547889553
14761567 1 18335137648164517334
14817 1 15945072138357183701
15001771 113 16842466049456993247
15881359 60 17703508787962360737
16945 1 18189338038001920040
19868273 325 18272656731474064660
20511035 2 17261317994819345576
20645476 183 18116171994778415724
23236772 104 16697796750423145992
2334 1 18341040887254880624
23559900 14 18198897008465674618
241688 4 18130210614738895840
2748010 2 18343012294381487136
369184 2 18342166769765296798
5084963 1 17988352766973792505
528886 8 17531528668018754780
535629 181 18057021541694761940
5845 1 11311208927432115179
598444 67 18337406979670604091
63268167 104 18059283378768104401

> <PUBCHEM_SHAPE_MULTIPOLES>
323.4
3.73
2.11
1.54
1.51
0.39
-0.29
-0.32
-0.05
-0.1
0.53
-0.42
-0.2
0.13

> <PUBCHEM_SHAPE_SELFOVERLAP>
688.478

> <PUBCHEM_SHAPE_VOLUME>
186.5

> <PUBCHEM_COORDINATE_TYPE>
2
5
10

$$$$
