114453
  -OEChem-11232108503D

 32 32  0     1  0  0  0  0  0999 V2000
   -2.1970   -2.1727   -0.3006 O   0  0  0  0  0  0  0  0  0  0  0  0
   -0.9681   -0.2420    0.5159 C   0  0  2  0  0  0  0  0  0  0  0  0
   -1.3785    1.2297    0.3076 C   0  0  2  0  0  0  0  0  0  0  0  0
   -2.8975    1.1988    0.5211 C   0  0  0  0  0  0  0  0  0  0  0  0
    0.3280   -0.6755   -0.1423 C   0  0  0  0  0  0  0  0  0  0  0  0
   -3.3757   -0.0750   -0.1677 C   0  0  0  0  0  0  0  0  0  0  0  0
   -2.1797   -0.9805   -0.0212 C   0  0  0  0  0  0  0  0  0  0  0  0
    1.5185    0.0608    0.4540 C   0  0  0  0  0  0  0  0  0  0  0  0
   -1.0207    1.8109   -1.0619 C   0  0  0  0  0  0  0  0  0  0  0  0
    2.8233   -0.4080   -0.1910 C   0  0  0  0  0  0  0  0  0  0  0  0
    4.0259    0.3469    0.3745 C   0  0  0  0  0  0  0  0  0  0  0  0
    5.3216   -0.0933   -0.2883 C   0  0  0  0  0  0  0  0  0  0  0  0
   -0.9352   -0.4545    1.5931 H   0  0  0  0  0  0  0  0  0  0  0  0
   -0.9134    1.8627    1.0729 H   0  0  0  0  0  0  0  0  0  0  0  0
   -3.4062    2.0877    0.1351 H   0  0  0  0  0  0  0  0  0  0  0  0
   -3.1136    1.1359    1.5954 H   0  0  0  0  0  0  0  0  0  0  0  0
    0.2882   -0.5349   -1.2290 H   0  0  0  0  0  0  0  0  0  0  0  0
    0.4625   -1.7548    0.0086 H   0  0  0  0  0  0  0  0  0  0  0  0
   -3.5713    0.0913   -1.2306 H   0  0  0  0  0  0  0  0  0  0  0  0
   -4.2535   -0.4969    0.3265 H   0  0  0  0  0  0  0  0  0  0  0  0
    1.4241    1.1436    0.3286 H   0  0  0  0  0  0  0  0  0  0  0  0
    1.5628   -0.1278    1.5340 H   0  0  0  0  0  0  0  0  0  0  0  0
   -1.4011    1.1929   -1.8818 H   0  0  0  0  0  0  0  0  0  0  0  0
   -1.4560    2.8102   -1.1735 H   0  0  0  0  0  0  0  0  0  0  0  0
    0.0582    1.9196   -1.1959 H   0  0  0  0  0  0  0  0  0  0  0  0
    2.9530   -1.4844   -0.0247 H   0  0  0  0  0  0  0  0  0  0  0  0
    2.7723   -0.2521   -1.2757 H   0  0  0  0  0  0  0  0  0  0  0  0
    3.8948    1.4247    0.2230 H   0  0  0  0  0  0  0  0  0  0  0  0
    4.0973    0.1773    1.4551 H   0  0  0  0  0  0  0  0  0  0  0  0
    5.4996   -1.1618   -0.1303 H   0  0  0  0  0  0  0  0  0  0  0  0
    6.1686    0.4580    0.1318 H   0  0  0  0  0  0  0  0  0  0  0  0
    5.2946    0.0951   -1.3663 H   0  0  0  0  0  0  0  0  0  0  0  0
  1  7  2  0  0  0  0
  2  3  1  0  0  0  0
  2  5  1  0  0  0  0
  2  7  1  0  0  0  0
  2 13  1  0  0  0  0
  3  4  1  0  0  0  0
  3  9  1  0  0  0  0
  3 14  1  0  0  0  0
  4  6  1  0  0  0  0
  4 15  1  0  0  0  0
  4 16  1  0  0  0  0
  5  8  1  0  0  0  0
  5 17  1  0  0  0  0
  5 18  1  0  0  0  0
  6  7  1  0  0  0  0
  6 19  1  0  0  0  0
  6 20  1  0  0  0  0
  8 10  1  0  0  0  0
  8 21  1  0  0  0  0
  8 22  1  0  0  0  0
  9 23  1  0  0  0  0
  9 24  1  0  0  0  0
  9 25  1  0  0  0  0
 10 11  1  0  0  0  0
 10 26  1  0  0  0  0
 10 27  1  0  0  0  0
 11 12  1  0  0  0  0
 11 28  1  0  0  0  0
 11 29  1  0  0  0  0
 12 30  1  0  0  0  0
 12 31  1  0  0  0  0
 12 32  1  0  0  0  0
M  END
> <PUBCHEM_COMPOUND_CID>
114453

> <PUBCHEM_CONFORMER_RMSD>
0.6

> <PUBCHEM_CONFORMER_DIVERSEORDER>
15
85
65
75
27
51
36
1
18
30
58
76
5
47
2
66
35
46
9
78
11
69
79
16
71
19
45
81
53
39
8
82
68
38
41
64
72
13
67
49
61
22
57
10
59
17
77
37
62
50
83
70
33
43
24
74
4
80
60
56
73
25
63
84
20
26
3
14
31
6
12
55
54
23
32
42
48
21
29
40
28
44
7
34
52

> <PUBCHEM_MMFF94_PARTIAL_CHARGES>
4
1 -0.57
2 0.06
6 0.06
7 0.45

> <PUBCHEM_EFFECTIVE_ROTOR_COUNT>
4.8

> <PUBCHEM_PHARMACOPHORE_FEATURES>
4
1 1 acceptor
1 12 hydrophobe
4 5 8 10 11 hydrophobe
5 2 3 4 6 7 rings

> <PUBCHEM_HEAVY_ATOM_COUNT>
12

> <PUBCHEM_ATOM_DEF_STEREO_COUNT>
0

> <PUBCHEM_ATOM_UDEF_STEREO_COUNT>
2

> <PUBCHEM_BOND_DEF_STEREO_COUNT>
0

> <PUBCHEM_BOND_UDEF_STEREO_COUNT>
0

> <PUBCHEM_ISOTOPIC_ATOM_COUNT>
0

> <PUBCHEM_COMPONENT_COUNT>
1

> <PUBCHEM_CACTVS_TAUTO_COUNT>
3

> <PUBCHEM_CONFORMER_ID>
0001BF150000000F

> <PUBCHEM_MMFF94_ENERGY>
10.1524

> <PUBCHEM_FEATURE_SELFOVERLAP>
20.297

> <PUBCHEM_SHAPE_FINGERPRINT>
10680689 15 18409456886212911906
10989021 7 18115309010999523452
11132069 177 18409728465279179688
12932764 1 18260258621395547760
13024252 1 15864072057563538961
13214271 11 17821736017996642905
13897977 58 18334863818166387436
14325111 11 18342176644296056482
15669948 3 18410845564592506018
15775835 57 18335139743786609688
16945 1 18342173367378330545
187816 3 17530961410587746875
1986462 14 18342178860694269070
200 152 16845568716699233238
20279233 1 17775011180415763310
20645477 56 18340491071089852385
20645477 70 16630253485563464206
20871998 184 18201442510357964919
21061003 4 17131836516077061090
23402539 116 18341324561544841487
23557571 272 18272097076045460956
23559900 14 18201719514737671034
573450 72 18335408046631646578
58051976 100 18412546513913654550
6333449 129 18413668002551116553
75552 356 18411701006319155591

> <PUBCHEM_SHAPE_MULTIPOLES>
241.09
8.02
1.58
0.81
12.25
0.09
0.05
0
0.13
-1.56
0.3
-0.1
-0.19
-0.06

> <PUBCHEM_SHAPE_SELFOVERLAP>
466.463

> <PUBCHEM_SHAPE_VOLUME>
148.8

> <PUBCHEM_COORDINATE_TYPE>
2
5
10

$$$$
