114530
  -OEChem-11232109183D

 31 31  0     1  0  0  0  0  0999 V2000
    0.0634   -1.0463   -0.1345 O   0  0  0  0  0  0  0  0  0  0  0  0
    0.1123    0.3826   -0.1826 C   0  0  2  0  0  0  0  0  0  0  0  0
   -2.4284    0.4293   -0.3028 C   0  0  1  0  0  0  0  0  0  0  0  0
   -1.1146    0.9291   -0.9199 C   0  0  0  0  0  0  0  0  0  0  0  0
    1.3983    0.7779   -0.8969 C   0  0  0  0  0  0  0  0  0  0  0  0
   -2.3659   -1.0907   -0.1076 C   0  0  0  0  0  0  0  0  0  0  0  0
   -1.0759   -1.5286    0.5758 C   0  0  0  0  0  0  0  0  0  0  0  0
    2.6724    0.3259   -0.1633 C   0  0  0  0  0  0  0  0  0  0  0  0
   -2.7508    1.1540    1.0065 C   0  0  0  0  0  0  0  0  0  0  0  0
    2.7475    0.8697    1.2640 C   0  0  0  0  0  0  0  0  0  0  0  0
    2.7417   -1.2028   -0.1387 C   0  0  0  0  0  0  0  0  0  0  0  0
    0.1180    0.7749    0.8398 H   0  0  0  0  0  0  0  0  0  0  0  0
   -3.2441    0.6539   -1.0020 H   0  0  0  0  0  0  0  0  0  0  0  0
   -1.0852    0.5828   -1.9619 H   0  0  0  0  0  0  0  0  0  0  0  0
   -1.0930    2.0249   -0.9459 H   0  0  0  0  0  0  0  0  0  0  0  0
    1.4086    0.3545   -1.9099 H   0  0  0  0  0  0  0  0  0  0  0  0
    1.4294    1.8691   -1.0101 H   0  0  0  0  0  0  0  0  0  0  0  0
   -2.4057   -1.5597   -1.0994 H   0  0  0  0  0  0  0  0  0  0  0  0
   -3.2350   -1.4505    0.4541 H   0  0  0  0  0  0  0  0  0  0  0  0
   -1.0294   -1.1893    1.6166 H   0  0  0  0  0  0  0  0  0  0  0  0
   -1.0186   -2.6218    0.5882 H   0  0  0  0  0  0  0  0  0  0  0  0
    3.5327    0.7042   -0.7296 H   0  0  0  0  0  0  0  0  0  0  0  0
   -1.9956    0.9810    1.7785 H   0  0  0  0  0  0  0  0  0  0  0  0
   -2.8191    2.2345    0.8409 H   0  0  0  0  0  0  0  0  0  0  0  0
   -3.7150    0.8180    1.4027 H   0  0  0  0  0  0  0  0  0  0  0  0
    2.0026    0.4184    1.9266 H   0  0  0  0  0  0  0  0  0  0  0  0
    2.6076    1.9556    1.2751 H   0  0  0  0  0  0  0  0  0  0  0  0
    3.7323    0.6578    1.6951 H   0  0  0  0  0  0  0  0  0  0  0  0
    2.1520   -1.6514    0.6661 H   0  0  0  0  0  0  0  0  0  0  0  0
    3.7779   -1.5084    0.0529 H   0  0  0  0  0  0  0  0  0  0  0  0
    2.4567   -1.6451   -1.0988 H   0  0  0  0  0  0  0  0  0  0  0  0
  1  2  1  0  0  0  0
  1  7  1  0  0  0  0
  2  4  1  0  0  0  0
  2  5  1  0  0  0  0
  2 12  1  0  0  0  0
  3  4  1  0  0  0  0
  3  6  1  0  0  0  0
  3  9  1  0  0  0  0
  3 13  1  0  0  0  0
  4 14  1  0  0  0  0
  4 15  1  0  0  0  0
  5  8  1  0  0  0  0
  5 16  1  0  0  0  0
  5 17  1  0  0  0  0
  6  7  1  0  0  0  0
  6 18  1  0  0  0  0
  6 19  1  0  0  0  0
  7 20  1  0  0  0  0
  7 21  1  0  0  0  0
  8 10  1  0  0  0  0
  8 11  1  0  0  0  0
  8 22  1  0  0  0  0
  9 23  1  0  0  0  0
  9 24  1  0  0  0  0
  9 25  1  0  0  0  0
 10 26  1  0  0  0  0
 10 27  1  0  0  0  0
 10 28  1  0  0  0  0
 11 29  1  0  0  0  0
 11 30  1  0  0  0  0
 11 31  1  0  0  0  0
M  END
> <PUBCHEM_COMPOUND_CID>
114530

> <PUBCHEM_CONFORMER_RMSD>
0.6

> <PUBCHEM_CONFORMER_DIVERSEORDER>
1
3
4
2

> <PUBCHEM_MMFF94_PARTIAL_CHARGES>
3
1 -0.56
2 0.28
7 0.28

> <PUBCHEM_EFFECTIVE_ROTOR_COUNT>
3.2

> <PUBCHEM_PHARMACOPHORE_FEATURES>
3
1 1 acceptor
3 8 10 11 hydrophobe
6 1 2 3 4 6 7 rings

> <PUBCHEM_HEAVY_ATOM_COUNT>
11

> <PUBCHEM_ATOM_DEF_STEREO_COUNT>
0

> <PUBCHEM_ATOM_UDEF_STEREO_COUNT>
2

> <PUBCHEM_BOND_DEF_STEREO_COUNT>
0

> <PUBCHEM_BOND_UDEF_STEREO_COUNT>
0

> <PUBCHEM_ISOTOPIC_ATOM_COUNT>
0

> <PUBCHEM_COMPONENT_COUNT>
1

> <PUBCHEM_CACTVS_TAUTO_COUNT>
1

> <PUBCHEM_CONFORMER_ID>
0001BF6200000001

> <PUBCHEM_MMFF94_ENERGY>
20.9787

> <PUBCHEM_FEATURE_SELFOVERLAP>
15.223

> <PUBCHEM_SHAPE_FINGERPRINT>
10857977 72 18335133253964457077
12162725 195 17418372471748569809
12382932 28 18334850649696359760
12932764 1 17560807679240199126
14144814 61 18186521033413919404
14325111 11 18410012130414794388
14390081 3 17988923374912074289
15310529 11 16917344857309101133
15775835 57 18410297986305645744
16945 1 17967530164232631381
17834069 15 18337110047148734532
19973954 147 18201440328113593384
20645464 45 18342450461156037818
20653085 51 16558764377232950049
207724 885 18040723553797941069
21028194 46 18342460300905137333
23402539 116 17988634216855867999
23552423 10 17749957776984276030
2748010 2 17681828510269292111
3248919 1 18335135435950235932
369184 2 17775565364061189551
5084963 1 18335419062605315581

> <PUBCHEM_SHAPE_MULTIPOLES>
220.51
4.87
1.52
1.06
1.16
0.41
-0.16
-0.43
-0.95
-0.3
-0.15
0.12
-0.32
0.1

> <PUBCHEM_SHAPE_SELFOVERLAP>
422.868

> <PUBCHEM_SHAPE_VOLUME>
135.5

> <PUBCHEM_COORDINATE_TYPE>
2
5
10

$$$$
