114558
  -OEChem-11232109253D

 36 36  0     1  0  0  0  0  0999 V2000
   -3.3339   -1.1473    0.9762 O   0  0  0  0  0  0  0  0  0  0  0  0
    1.7704   -0.9606   -0.3066 C   0  0  0  0  0  0  0  0  0  0  0  0
    0.5125   -0.0900   -0.6434 C   0  0  2  0  0  0  0  0  0  0  0  0
    2.2370   -0.7121    1.1525 C   0  0  0  0  0  0  0  0  0  0  0  0
    2.4413    0.7688    1.4838 C   0  0  0  0  0  0  0  0  0  0  0  0
    0.7525    1.3640   -0.2658 C   0  0  0  0  0  0  0  0  0  0  0  0
   -0.7886   -0.5761    0.0139 C   0  0  0  0  0  0  0  0  0  0  0  0
    1.2138    1.6121    1.1471 C   0  0  0  0  0  0  0  0  0  0  0  0
    2.9174   -0.6103   -1.2864 C   0  0  0  0  0  0  0  0  0  0  0  0
    1.4779   -2.4654   -0.4788 C   0  0  0  0  0  0  0  0  0  0  0  0
   -1.9802    0.2258   -0.4830 C   0  0  0  0  0  0  0  0  0  0  0  0
    0.5911    2.3651   -1.1448 C   0  0  0  0  0  0  0  0  0  0  0  0
   -3.2813   -0.2424    0.1445 C   0  0  0  0  0  0  0  0  0  0  0  0
   -4.5299    0.4685   -0.3092 C   0  0  0  0  0  0  0  0  0  0  0  0
    0.3603   -0.1574   -1.7312 H   0  0  0  0  0  0  0  0  0  0  0  0
    3.1719   -1.2527    1.3474 H   0  0  0  0  0  0  0  0  0  0  0  0
    1.4967   -1.1233    1.8510 H   0  0  0  0  0  0  0  0  0  0  0  0
    3.3142    1.1538    0.9432 H   0  0  0  0  0  0  0  0  0  0  0  0
    2.6709    0.8724    2.5508 H   0  0  0  0  0  0  0  0  0  0  0  0
   -0.7287   -0.5326    1.1077 H   0  0  0  0  0  0  0  0  0  0  0  0
   -0.9711   -1.6261   -0.2410 H   0  0  0  0  0  0  0  0  0  0  0  0
    1.4547    2.6701    1.3070 H   0  0  0  0  0  0  0  0  0  0  0  0
    0.4001    1.3740    1.8423 H   0  0  0  0  0  0  0  0  0  0  0  0
    3.1894    0.4489   -1.2554 H   0  0  0  0  0  0  0  0  0  0  0  0
    2.6325   -0.8433   -2.3191 H   0  0  0  0  0  0  0  0  0  0  0  0
    3.8212   -1.1863   -1.0562 H   0  0  0  0  0  0  0  0  0  0  0  0
    1.0494   -2.6747   -1.4652 H   0  0  0  0  0  0  0  0  0  0  0  0
    0.7862   -2.8400    0.2828 H   0  0  0  0  0  0  0  0  0  0  0  0
    2.3966   -3.0564   -0.3848 H   0  0  0  0  0  0  0  0  0  0  0  0
   -1.8858    1.2856   -0.2275 H   0  0  0  0  0  0  0  0  0  0  0  0
   -2.0773    0.1302   -1.5702 H   0  0  0  0  0  0  0  0  0  0  0  0
    0.2689    2.1751   -2.1631 H   0  0  0  0  0  0  0  0  0  0  0  0
    0.7758    3.3968   -0.8653 H   0  0  0  0  0  0  0  0  0  0  0  0
   -4.6579    0.3329   -1.3859 H   0  0  0  0  0  0  0  0  0  0  0  0
   -4.4541    1.5317   -0.0686 H   0  0  0  0  0  0  0  0  0  0  0  0
   -5.3999    0.0511    0.2054 H   0  0  0  0  0  0  0  0  0  0  0  0
  1 13  2  0  0  0  0
  2  3  1  0  0  0  0
  2  4  1  0  0  0  0
  2  9  1  0  0  0  0
  2 10  1  0  0  0  0
  3  6  1  0  0  0  0
  3  7  1  0  0  0  0
  3 15  1  0  0  0  0
  4  5  1  0  0  0  0
  4 16  1  0  0  0  0
  4 17  1  0  0  0  0
  5  8  1  0  0  0  0
  5 18  1  0  0  0  0
  5 19  1  0  0  0  0
  6  8  1  0  0  0  0
  6 12  2  0  0  0  0
  7 11  1  0  0  0  0
  7 20  1  0  0  0  0
  7 21  1  0  0  0  0
  8 22  1  0  0  0  0
  8 23  1  0  0  0  0
  9 24  1  0  0  0  0
  9 25  1  0  0  0  0
  9 26  1  0  0  0  0
 10 27  1  0  0  0  0
 10 28  1  0  0  0  0
 10 29  1  0  0  0  0
 11 13  1  0  0  0  0
 11 30  1  0  0  0  0
 11 31  1  0  0  0  0
 12 32  1  0  0  0  0
 12 33  1  0  0  0  0
 13 14  1  0  0  0  0
 14 34  1  0  0  0  0
 14 35  1  0  0  0  0
 14 36  1  0  0  0  0
M  END
> <PUBCHEM_COMPOUND_CID>
114558

> <PUBCHEM_CONFORMER_RMSD>
0.6

> <PUBCHEM_CONFORMER_DIVERSEORDER>
6
5
33
13
12
32
8
3
18
29
2
11
14
30
31
19
1
17
4
9
26
27
34
25
21
10
28
35
7
15
20
24
22
16
23

> <PUBCHEM_MMFF94_PARTIAL_CHARGES>
10
1 -0.57
11 0.06
12 -0.3
13 0.45
14 0.06
3 0.14
32 0.15
33 0.15
6 -0.28
8 0.14

> <PUBCHEM_EFFECTIVE_ROTOR_COUNT>
4

> <PUBCHEM_PHARMACOPHORE_FEATURES>
3
1 1 acceptor
3 2 9 10 hydrophobe
6 2 3 4 5 6 8 rings

> <PUBCHEM_HEAVY_ATOM_COUNT>
14

> <PUBCHEM_ATOM_DEF_STEREO_COUNT>
0

> <PUBCHEM_ATOM_UDEF_STEREO_COUNT>
1

> <PUBCHEM_BOND_DEF_STEREO_COUNT>
0

> <PUBCHEM_BOND_UDEF_STEREO_COUNT>
0

> <PUBCHEM_ISOTOPIC_ATOM_COUNT>
0

> <PUBCHEM_COMPONENT_COUNT>
1

> <PUBCHEM_CACTVS_TAUTO_COUNT>
3

> <PUBCHEM_CONFORMER_ID>
0001BF7E00000006

> <PUBCHEM_MMFF94_ENERGY>
27.8646

> <PUBCHEM_FEATURE_SELFOVERLAP>
15.223

> <PUBCHEM_SHAPE_FINGERPRINT>
10219947 1 18341603841402698136
11067466 332 18261108543820625190
12423570 1 13159493222347563248
12654215 9 18411697668897464564
12696612 119 18189327034369658189
12725867 57 18410294679312774692
12932764 1 18202563969215616143
13922767 16 18342731901989404889
14648413 74 18042980937343515197
14817 1 11719266894077594056
15501101 241 18272364248432721196
15775835 57 17417241164778464897
161256 15 18271239422457717140
16945 1 18059280007434814326
18186145 218 18131635569530207371
19049666 15 18194390096648060725
20233049 118 17894917316806885125
20339313 130 18335713740554444549
20539784 86 17703787050192550058
20559304 39 18343027717819907273
20645477 70 17917988356898275967
20708731 107 18339094785790446724
20871998 22 18337105644838956590
21524375 3 17249220557963695413
21730867 7 17846495958733427131
22892500 29 17703778224130020529
230 275 17489311948608302385
23526113 38 17968393250938563699
2748010 2 18194950864409832460
3060560 45 18131068212312970278
7364860 26 18265060295763768085
74978 22 18113903792753489745
81228 2 17973721381197092277

> <PUBCHEM_SHAPE_MULTIPOLES>
282.24
5.8
2.08
1.31
8.3
0.16
-0.16
-1.04
-0.52
-1.19
0.34
-0.87
0.29
0.72

> <PUBCHEM_SHAPE_SELFOVERLAP>
555.6

> <PUBCHEM_SHAPE_VOLUME>
168.9

> <PUBCHEM_COORDINATE_TYPE>
2
5
10

$$$$
