11658402
  -OEChem-11232108493D

 37 37  0     1  0  0  0  0  0999 V2000
    0.2467    0.8070   -0.8448 O   0  0  0  0  0  0  0  0  0  0  0  0
   -0.3503   -0.0839    0.1201 C   0  0  2  0  0  0  0  0  0  0  0  0
   -1.8546   -0.1367   -0.1296 C   0  0  0  0  0  0  0  0  0  0  0  0
   -0.0192    0.4917    1.4977 C   0  0  0  0  0  0  0  0  0  0  0  0
    0.2694   -1.4683   -0.0850 C   0  0  0  0  0  0  0  0  0  0  0  0
    1.2732    1.2307    1.2443 C   0  0  0  0  0  0  0  0  0  0  0  0
    1.0375    1.7847   -0.1490 C   0  0  1  0  0  0  0  0  0  0  0  0
   -2.1313   -0.7221   -1.5254 C   0  0  0  0  0  0  0  0  0  0  0  0
   -2.5285   -1.0236    0.9318 C   0  0  0  0  0  0  0  0  0  0  0  0
   -2.4462    1.2814   -0.0511 C   0  0  0  0  0  0  0  0  0  0  0  0
    1.7844   -1.4203    0.0691 C   0  0  0  0  0  0  0  0  0  0  0  0
    2.3168    2.0500   -0.9183 C   0  0  0  0  0  0  0  0  0  0  0  0
    2.4022   -2.7905   -0.1598 C   0  0  0  0  0  0  0  0  0  0  0  0
    0.0888   -0.2730    2.2743 H   0  0  0  0  0  0  0  0  0  0  0  0
   -0.7448    1.2143    1.8756 H   0  0  0  0  0  0  0  0  0  0  0  0
    0.0880   -1.8422   -1.0977 H   0  0  0  0  0  0  0  0  0  0  0  0
   -0.1287   -2.2044    0.6206 H   0  0  0  0  0  0  0  0  0  0  0  0
    1.3945    2.0521    1.9614 H   0  0  0  0  0  0  0  0  0  0  0  0
    2.1928    0.6592    1.3350 H   0  0  0  0  0  0  0  0  0  0  0  0
    0.4437    2.7054   -0.0980 H   0  0  0  0  0  0  0  0  0  0  0  0
   -1.9404   -1.7985   -1.5824 H   0  0  0  0  0  0  0  0  0  0  0  0
   -1.5528   -0.2214   -2.3090 H   0  0  0  0  0  0  0  0  0  0  0  0
   -3.1898   -0.5979   -1.7863 H   0  0  0  0  0  0  0  0  0  0  0  0
   -2.3338   -0.6812    1.9530 H   0  0  0  0  0  0  0  0  0  0  0  0
   -3.6176   -1.0058    0.7989 H   0  0  0  0  0  0  0  0  0  0  0  0
   -2.2318   -2.0740    0.8606 H   0  0  0  0  0  0  0  0  0  0  0  0
   -1.9446    1.9819   -0.7265 H   0  0  0  0  0  0  0  0  0  0  0  0
   -3.5010    1.2645   -0.3547 H   0  0  0  0  0  0  0  0  0  0  0  0
   -2.4428    1.7068    0.9554 H   0  0  0  0  0  0  0  0  0  0  0  0
    2.0590   -1.1938    1.0990 H   0  0  0  0  0  0  0  0  0  0  0  0
    2.2528   -0.7332   -0.6313 H   0  0  0  0  0  0  0  0  0  0  0  0
    2.0835    2.3695   -1.9399 H   0  0  0  0  0  0  0  0  0  0  0  0
    2.9018    2.8387   -0.4347 H   0  0  0  0  0  0  0  0  0  0  0  0
    2.9531    1.1676   -1.0080 H   0  0  0  0  0  0  0  0  0  0  0  0
    1.9986   -3.5292    0.5407 H   0  0  0  0  0  0  0  0  0  0  0  0
    2.2078   -3.1433   -1.1779 H   0  0  0  0  0  0  0  0  0  0  0  0
    3.4870   -2.7478   -0.0184 H   0  0  0  0  0  0  0  0  0  0  0  0
  1  2  1  0  0  0  0
  1  7  1  0  0  0  0
  2  3  1  0  0  0  0
  2  4  1  0  0  0  0
  2  5  1  0  0  0  0
  3  8  1  0  0  0  0
  3  9  1  0  0  0  0
  3 10  1  0  0  0  0
  4  6  1  0  0  0  0
  4 14  1  0  0  0  0
  4 15  1  0  0  0  0
  5 11  1  0  0  0  0
  5 16  1  0  0  0  0
  5 17  1  0  0  0  0
  6  7  1  0  0  0  0
  6 18  1  0  0  0  0
  6 19  1  0  0  0  0
  7 12  1  0  0  0  0
  7 20  1  0  0  0  0
  8 21  1  0  0  0  0
  8 22  1  0  0  0  0
  8 23  1  0  0  0  0
  9 24  1  0  0  0  0
  9 25  1  0  0  0  0
  9 26  1  0  0  0  0
 10 27  1  0  0  0  0
 10 28  1  0  0  0  0
 10 29  1  0  0  0  0
 11 13  1  0  0  0  0
 11 30  1  0  0  0  0
 11 31  1  0  0  0  0
 12 32  1  0  0  0  0
 12 33  1  0  0  0  0
 12 34  1  0  0  0  0
 13 35  1  0  0  0  0
 13 36  1  0  0  0  0
 13 37  1  0  0  0  0
M  END
> <PUBCHEM_COMPOUND_CID>
11658402

> <PUBCHEM_CONFORMER_RMSD>
0.6

> <PUBCHEM_CONFORMER_DIVERSEORDER>
1
7
4
5
3
2
6

> <PUBCHEM_MMFF94_PARTIAL_CHARGES>
3
1 -0.56
2 0.28
7 0.28

> <PUBCHEM_EFFECTIVE_ROTOR_COUNT>
4

> <PUBCHEM_PHARMACOPHORE_FEATURES>
4
1 1 acceptor
1 13 hydrophobe
4 3 8 9 10 hydrophobe
5 1 2 4 6 7 rings

> <PUBCHEM_HEAVY_ATOM_COUNT>
13

> <PUBCHEM_ATOM_DEF_STEREO_COUNT>
0

> <PUBCHEM_ATOM_UDEF_STEREO_COUNT>
2

> <PUBCHEM_BOND_DEF_STEREO_COUNT>
0

> <PUBCHEM_BOND_UDEF_STEREO_COUNT>
0

> <PUBCHEM_ISOTOPIC_ATOM_COUNT>
0

> <PUBCHEM_COMPONENT_COUNT>
1

> <PUBCHEM_CACTVS_TAUTO_COUNT>
1

> <PUBCHEM_CONFORMER_ID>
00B1E4A200000001

> <PUBCHEM_MMFF94_ENERGY>
48.7806

> <PUBCHEM_FEATURE_SELFOVERLAP>
20.297

> <PUBCHEM_SHAPE_FINGERPRINT>
1 1 18266181814935356702
12326174 3 17968358130974731208
12423570 1 18191276403908240952
13024252 1 9219794750178342634
14128692 85 18130216082279762254
14648413 74 18261112946051385789
14817 1 9128955822600800274
15490181 7 17984979551246613825
15490181 8 18263353857864266091
15557651 10 17771923889145931945
16945 1 18268986668807727849
20511035 2 18272364222858148169
20711985 344 17616237092759531330
21501502 16 18412553102403659291
23419403 2 17407353033508966408
23552423 10 18411978078801446135
2748010 2 18267292132606183142
305870 269 18341886450230046264
3250762 1 18188224168488644275
5084963 1 17628919229183607473
528862 383 18338524135003179818
528886 8 18121508117670421273
54338 74 17760659070280664594
57177213 63 18265619955703363389
68250623 7 18336564732505214529
81228 2 17547858456069907738

> <PUBCHEM_SHAPE_MULTIPOLES>
261.66
3.57
2.56
1.27
0.87
0.71
0.08
0.65
-0.47
-2.37
-0.31
0.24
-0.21
-0.16

> <PUBCHEM_SHAPE_SELFOVERLAP>
517.302

> <PUBCHEM_SHAPE_VOLUME>
159.2

> <PUBCHEM_COORDINATE_TYPE>
2
5
10

$$$$
