116562
  -OEChem-11232109093D

 31 32  0     0  0  0  0  0  0999 V2000
   -1.2689   -0.8538   -0.3935 O   0  0  0  0  0  0  0  0  0  0  0  0
   -1.4561    1.2507    0.6870 O   0  0  0  0  0  0  0  0  0  0  0  0
    0.7424    0.5216   -0.1020 C   0  0  0  0  0  0  0  0  0  0  0  0
    2.0172    1.0228   -0.8137 C   0  0  0  0  0  0  0  0  0  0  0  0
    1.1387   -0.1119    1.2630 C   0  0  0  0  0  0  0  0  0  0  0  0
   -0.0108   -0.5095   -0.9776 C   0  0  0  0  0  0  0  0  0  0  0  0
   -0.2163    1.7060    0.1452 C   0  0  0  0  0  0  0  0  0  0  0  0
    3.0607   -0.0810   -1.0200 C   0  0  0  0  0  0  0  0  0  0  0  0
   -2.0752    0.3070   -0.1888 C   0  0  0  0  0  0  0  0  0  0  0  0
    2.3543   -0.9915    1.1960 C   0  0  0  0  0  0  0  0  0  0  0  0
    3.2112   -0.9839    0.1663 C   0  0  0  0  0  0  0  0  0  0  0  0
   -3.3768   -0.1393    0.4548 C   0  0  0  0  0  0  0  0  0  0  0  0
   -4.1204   -1.1374   -0.4167 C   0  0  0  0  0  0  0  0  0  0  0  0
    2.4705    1.8252   -0.2151 H   0  0  0  0  0  0  0  0  0  0  0  0
    1.7689    1.4689   -1.7849 H   0  0  0  0  0  0  0  0  0  0  0  0
    0.3052   -0.6977    1.6686 H   0  0  0  0  0  0  0  0  0  0  0  0
    1.3485    0.6764    1.9976 H   0  0  0  0  0  0  0  0  0  0  0  0
   -0.1893   -0.1154   -1.9860 H   0  0  0  0  0  0  0  0  0  0  0  0
    0.5549   -1.4391   -1.0923 H   0  0  0  0  0  0  0  0  0  0  0  0
    0.2152    2.4208    0.8547 H   0  0  0  0  0  0  0  0  0  0  0  0
   -0.4172    2.2566   -0.7826 H   0  0  0  0  0  0  0  0  0  0  0  0
    4.0275    0.3841   -1.2449 H   0  0  0  0  0  0  0  0  0  0  0  0
    2.7935   -0.6904   -1.8912 H   0  0  0  0  0  0  0  0  0  0  0  0
   -2.2892    0.7857   -1.1541 H   0  0  0  0  0  0  0  0  0  0  0  0
    2.5377   -1.6587    2.0332 H   0  0  0  0  0  0  0  0  0  0  0  0
    4.0618   -1.6591    0.1793 H   0  0  0  0  0  0  0  0  0  0  0  0
   -4.0124    0.7318    0.6530 H   0  0  0  0  0  0  0  0  0  0  0  0
   -3.1723   -0.6016    1.4286 H   0  0  0  0  0  0  0  0  0  0  0  0
   -4.3331   -0.7154   -1.4041 H   0  0  0  0  0  0  0  0  0  0  0  0
   -3.5491   -2.0610   -0.5516 H   0  0  0  0  0  0  0  0  0  0  0  0
   -5.0750   -1.4031    0.0488 H   0  0  0  0  0  0  0  0  0  0  0  0
  1  6  1  0  0  0  0
  1  9  1  0  0  0  0
  2  7  1  0  0  0  0
  2  9  1  0  0  0  0
  3  4  1  0  0  0  0
  3  5  1  0  0  0  0
  3  6  1  0  0  0  0
  3  7  1  0  0  0  0
  4  8  1  0  0  0  0
  4 14  1  0  0  0  0
  4 15  1  0  0  0  0
  5 10  1  0  0  0  0
  5 16  1  0  0  0  0
  5 17  1  0  0  0  0
  6 18  1  0  0  0  0
  6 19  1  0  0  0  0
  7 20  1  0  0  0  0
  7 21  1  0  0  0  0
  8 11  1  0  0  0  0
  8 22  1  0  0  0  0
  8 23  1  0  0  0  0
  9 12  1  0  0  0  0
  9 24  1  0  0  0  0
 10 11  2  0  0  0  0
 10 25  1  0  0  0  0
 11 26  1  0  0  0  0
 12 13  1  0  0  0  0
 12 27  1  0  0  0  0
 12 28  1  0  0  0  0
 13 29  1  0  0  0  0
 13 30  1  0  0  0  0
 13 31  1  0  0  0  0
M  END
> <PUBCHEM_COMPOUND_CID>
116562

> <PUBCHEM_CONFORMER_RMSD>
0.6

> <PUBCHEM_CONFORMER_DIVERSEORDER>
1
4
3
2

> <PUBCHEM_MMFF94_PARTIAL_CHARGES>
11
1 -0.56
10 -0.29
11 -0.29
2 -0.56
25 0.15
26 0.15
5 0.14
6 0.28
7 0.28
8 0.14
9 0.56

> <PUBCHEM_EFFECTIVE_ROTOR_COUNT>
2.6

> <PUBCHEM_PHARMACOPHORE_FEATURES>
5
1 1 acceptor
1 13 hydrophobe
1 2 acceptor
6 1 2 3 6 7 9 rings
6 3 4 5 8 10 11 rings

> <PUBCHEM_HEAVY_ATOM_COUNT>
13

> <PUBCHEM_ATOM_DEF_STEREO_COUNT>
0

> <PUBCHEM_ATOM_UDEF_STEREO_COUNT>
0

> <PUBCHEM_BOND_DEF_STEREO_COUNT>
0

> <PUBCHEM_BOND_UDEF_STEREO_COUNT>
0

> <PUBCHEM_ISOTOPIC_ATOM_COUNT>
0

> <PUBCHEM_COMPONENT_COUNT>
1

> <PUBCHEM_CACTVS_TAUTO_COUNT>
1

> <PUBCHEM_CONFORMER_ID>
0001C75200000001

> <PUBCHEM_MMFF94_ENERGY>
23.3903

> <PUBCHEM_FEATURE_SELFOVERLAP>
25.41

> <PUBCHEM_SHAPE_FINGERPRINT>
10130415 120 18412265051473354705
10465860 228 9222693110226514861
10857977 72 17846498127860807505
11543360 7 16660929992864073711
11769659 78 18187077321730769795
12032990 46 18130794464277395111
12251169 10 16199858557367545795
12423570 1 8119671025317572584
12897270 3 14996284686752168202
12932764 1 18187081767391186309
13581323 91 17989201538479497166
13705890 14 16732988651705484523
14993402 34 18408045117039803167
15757776 16 17603300436626364714
16945 1 17846492604300691452
17844478 74 16558751178566289040
18186145 218 13407070367053195831
19422 9 18334582299991863106
200 152 17748825189887102498
20201158 50 14779550058612819050
20281407 28 18060423495164214251
20361792 2 18411408536284261149
20645477 70 17385435510444361427
21501925 9 18131061675762550615
23402655 69 17167857543769127319
465052 167 18338806736037100279
5084963 1 17846787273380012036
57812782 119 16056880225987139207
581208 293 17095241453553375062
7364860 26 18058446693580328760
77492 1 18188217506804379352

> <PUBCHEM_SHAPE_MULTIPOLES>
255.8
5.95
1.37
1.13
3.88
0.27
-0.08
-2.35
0.64
-0.08
-0.12
-0.45
-0.1
-0.68

> <PUBCHEM_SHAPE_SELFOVERLAP>
519.122

> <PUBCHEM_SHAPE_VOLUME>
145.8

> <PUBCHEM_COORDINATE_TYPE>
2
5
10

$$$$
