11658617
  -OEChem-11232109413D

 39 39  0     0  0  0  0  0  0999 V2000
   -2.3245   -0.3523   -1.7497 O   0  0  0  0  0  0  0  0  0  0  0  0
   -1.3802   -1.1723    0.2162 N   0  0  0  0  0  0  0  0  0  0  0  0
   -2.9322    0.6851    0.2722 C   0  0  0  0  0  0  0  0  0  0  0  0
   -4.4147    0.7473    0.1340 C   0  0  0  0  0  0  0  0  0  0  0  0
   -3.7950    0.2073    1.3895 C   0  0  0  0  0  0  0  0  0  0  0  0
   -2.1863   -0.3272   -0.5324 C   0  0  0  0  0  0  0  0  0  0  0  0
   -0.5798   -2.2168   -0.3572 C   0  0  0  0  0  0  0  0  0  0  0  0
    0.7690   -1.6649   -0.6917 C   0  0  0  0  0  0  0  0  0  0  0  0
    1.8729   -1.6578    0.0812 C   0  0  0  0  0  0  0  0  0  0  0  0
    3.2206   -1.1136   -0.3441 C   0  0  0  0  0  0  0  0  0  0  0  0
    3.4623    0.3414    0.0793 C   0  0  0  0  0  0  0  0  0  0  0  0
    1.8300   -2.2578    1.4632 C   0  0  0  0  0  0  0  0  0  0  0  0
    2.5309    1.3048   -0.6028 C   0  0  0  0  0  0  0  0  0  0  0  0
    1.6525    2.1538   -0.0369 C   0  0  0  0  0  0  0  0  0  0  0  0
    0.7482    3.0933   -0.7823 C   0  0  0  0  0  0  0  0  0  0  0  0
    1.5261    2.2297    1.4616 C   0  0  0  0  0  0  0  0  0  0  0  0
   -2.4162    1.6297    0.4065 H   0  0  0  0  0  0  0  0  0  0  0  0
   -4.8875    1.7205    0.1843 H   0  0  0  0  0  0  0  0  0  0  0  0
   -4.9124    0.0436   -0.5221 H   0  0  0  0  0  0  0  0  0  0  0  0
   -3.8924   -0.8557    1.5734 H   0  0  0  0  0  0  0  0  0  0  0  0
   -3.8500    0.8188    2.2820 H   0  0  0  0  0  0  0  0  0  0  0  0
   -1.3307   -1.0394    1.2223 H   0  0  0  0  0  0  0  0  0  0  0  0
   -0.5430   -3.0531    0.3455 H   0  0  0  0  0  0  0  0  0  0  0  0
   -1.0565   -2.5874   -1.2715 H   0  0  0  0  0  0  0  0  0  0  0  0
    0.8505   -1.2296   -1.6870 H   0  0  0  0  0  0  0  0  0  0  0  0
    4.0150   -1.7497    0.0665 H   0  0  0  0  0  0  0  0  0  0  0  0
    3.3163   -1.1939   -1.4354 H   0  0  0  0  0  0  0  0  0  0  0  0
    3.4454    0.4200    1.1690 H   0  0  0  0  0  0  0  0  0  0  0  0
    4.4835    0.6144   -0.2166 H   0  0  0  0  0  0  0  0  0  0  0  0
    2.3639   -3.2137    1.4726 H   0  0  0  0  0  0  0  0  0  0  0  0
    2.3228   -1.5877    2.1764 H   0  0  0  0  0  0  0  0  0  0  0  0
    0.8233   -2.4235    1.8528 H   0  0  0  0  0  0  0  0  0  0  0  0
    2.5921    1.3021   -1.6906 H   0  0  0  0  0  0  0  0  0  0  0  0
    0.9419    4.1280   -0.4823 H   0  0  0  0  0  0  0  0  0  0  0  0
    0.9010    3.0243   -1.8644 H   0  0  0  0  0  0  0  0  0  0  0  0
   -0.3010    2.8583   -0.5781 H   0  0  0  0  0  0  0  0  0  0  0  0
    0.4897    2.4528    1.7408 H   0  0  0  0  0  0  0  0  0  0  0  0
    2.1595    3.0312    1.8546 H   0  0  0  0  0  0  0  0  0  0  0  0
    1.7705    1.2963    1.9736 H   0  0  0  0  0  0  0  0  0  0  0  0
  1  6  2  0  0  0  0
  2  6  1  0  0  0  0
  2  7  1  0  0  0  0
  2 22  1  0  0  0  0
  3  4  1  0  0  0  0
  3  5  1  0  0  0  0
  3  6  1  0  0  0  0
  3 17  1  0  0  0  0
  4  5  1  0  0  0  0
  4 18  1  0  0  0  0
  4 19  1  0  0  0  0
  5 20  1  0  0  0  0
  5 21  1  0  0  0  0
  7  8  1  0  0  0  0
  7 23  1  0  0  0  0
  7 24  1  0  0  0  0
  8  9  2  0  0  0  0
  8 25  1  0  0  0  0
  9 10  1  0  0  0  0
  9 12  1  0  0  0  0
 10 11  1  0  0  0  0
 10 26  1  0  0  0  0
 10 27  1  0  0  0  0
 11 13  1  0  0  0  0
 11 28  1  0  0  0  0
 11 29  1  0  0  0  0
 12 30  1  0  0  0  0
 12 31  1  0  0  0  0
 12 32  1  0  0  0  0
 13 14  2  0  0  0  0
 13 33  1  0  0  0  0
 14 15  1  0  0  0  0
 14 16  1  0  0  0  0
 15 34  1  0  0  0  0
 15 35  1  0  0  0  0
 15 36  1  0  0  0  0
 16 37  1  0  0  0  0
 16 38  1  0  0  0  0
 16 39  1  0  0  0  0
M  END
> <PUBCHEM_COMPOUND_CID>
11658617

> <PUBCHEM_CONFORMER_RMSD>
0.8

> <PUBCHEM_CONFORMER_DIVERSEORDER>
1
87
221
122
63
98
139
47
89
155
118
163
201
151
69
100
179
169
97
226
114
60
251
43
144
65
104
94
61
117
142
135
180
85
259
73
131
2
208
241
136
34
143
75
257
119
58
107
262
252
50
124
196
258
42
141
194
147
93
215
242
216
192
161
45
39
199
20
177
68
233
223
27
157
120
44
84
105
70
134
187
189
6
250
171
203
99
245
237
96
52
126
167
110
121
10
5
152
174
103
211
183
79
164
125
56
54
108
116
90
234
212
156
229
145
81
185
210
67
240
238
138
57
80
249
76
26
190
29
209
28
78
172
112
36
205
149
33
64
232
113
130
66
59
247
129
219
191
227
225
218
193
19
153
46
102
181
21
170
230
74
214
101
8
160
12
166
3
40
38
204
261
95
202
236
224
9
71
51
31
239
195
4
243
206
213
53
173
49
146
150
168
175
165
111
72
77
7
207
162
23
109
86
132
30
41
83
140
32
14
133
231
15
186
235
127
182
184
88
254
220
217
55
35
222
148
178
11
48
92
200
18
253
248
37
260
154
198
106
13
246
82
256
91
22
188
158
244
123
197
228
255
176
16
62
17
24
115
159
137
128
25

> <PUBCHEM_MMFF94_PARTIAL_CHARGES>
24
1 -0.57
10 0.14
11 0.14
12 0.14
13 -0.29
14 -0.28
15 0.14
16 0.14
17 0.1
18 0.1
19 0.1
2 -0.73
20 0.1
21 0.1
22 0.37
25 0.15
3 -0.1
33 0.15
4 -0.2
5 -0.2
6 0.63
7 0.44
8 -0.29
9 -0.28

> <PUBCHEM_EFFECTIVE_ROTOR_COUNT>
7.6

> <PUBCHEM_PHARMACOPHORE_FEATURES>
5
1 1 acceptor
1 12 hydrophobe
1 2 donor
3 14 15 16 hydrophobe
4 9 10 11 13 hydrophobe

> <PUBCHEM_HEAVY_ATOM_COUNT>
16

> <PUBCHEM_ATOM_DEF_STEREO_COUNT>
0

> <PUBCHEM_ATOM_UDEF_STEREO_COUNT>
0

> <PUBCHEM_BOND_DEF_STEREO_COUNT>
1

> <PUBCHEM_BOND_UDEF_STEREO_COUNT>
0

> <PUBCHEM_ISOTOPIC_ATOM_COUNT>
0

> <PUBCHEM_COMPONENT_COUNT>
1

> <PUBCHEM_CACTVS_TAUTO_COUNT>
2

> <PUBCHEM_CONFORMER_ID>
00B1E57900000001

> <PUBCHEM_MMFF94_ENERGY>
17.7431

> <PUBCHEM_FEATURE_SELFOVERLAP>
25.378

> <PUBCHEM_SHAPE_FINGERPRINT>
10366900 7 17603875511209347603
10382601 240 18336256912463036448
104564 63 18123473774199737524
11086676 242 18263916657958068770
128993 33 18047479112105625704
13618510 140 18049436243040411636
14026960 21 18265065789369564611
14178342 30 18051682536574180544
14386348 128 18117563040011745340
14713325 29 16526406055556093788
15775835 57 18339368564333540324
18219364 16 18260258655512615079
20304884 271 18270120261096306902
20539784 86 18113621153340034202
20606313 2 18339927021603496343
20621476 7 18339368439848489241
20671657 1 18411702127052366780
21041028 32 17831297203439876818
21524375 3 18339080513640995999
21665062 11 18336268955240013266
23558518 356 17977099390160351730
2803657 2 17845395313366427336
31174 14 18186805755686755027
474 4 18412826884930574751
5939293 188 18413106165099921340
7832392 63 18342738554862383910

> <PUBCHEM_SHAPE_MULTIPOLES>
318.42
6.73
3.19
1.28
6.02
1.17
-0.21
0.87
-0.88
-2.39
-0.12
0.27
0.02
-0.4

> <PUBCHEM_SHAPE_SELFOVERLAP>
614.967

> <PUBCHEM_SHAPE_VOLUME>
194.7

> <PUBCHEM_COORDINATE_TYPE>
2
5
10

$$$$
