116699
  -OEChem-11232109003D

 46 46  0     1  0  0  0  0  0999 V2000
   -3.4617   -1.0462    1.7393 O   0  0  0  0  0  0  0  0  0  0  0  0
    1.2093    0.0087    0.5244 C   0  0  2  0  0  0  0  0  0  0  0  0
    2.2547    1.1045    0.1121 C   0  0  0  0  0  0  0  0  0  0  0  0
    1.4032   -1.3892   -0.1341 C   0  0  2  0  0  0  0  0  0  0  0  0
    3.6865    0.5153    0.1783 C   0  0  0  0  0  0  0  0  0  0  0  0
    2.8662   -1.8466   -0.0512 C   0  0  0  0  0  0  0  0  0  0  0  0
    3.8436   -0.8024   -0.5723 C   0  0  0  0  0  0  0  0  0  0  0  0
   -0.2526    0.4711    0.4379 C   0  0  0  0  0  0  0  0  0  0  0  0
    2.1993    2.2824    1.1171 C   0  0  0  0  0  0  0  0  0  0  0  0
    2.0083    1.7080   -1.2848 C   0  0  0  0  0  0  0  0  0  0  0  0
    0.8618   -1.5459   -1.5590 C   0  0  0  0  0  0  0  0  0  0  0  0
   -1.1769   -0.5352    1.1139 C   0  0  0  0  0  0  0  0  0  0  0  0
   -2.6433   -0.0847    1.0783 C   0  0  1  0  0  0  0  0  0  0  0  0
   -3.1317    0.0571   -0.3692 C   0  0  0  0  0  0  0  0  0  0  0  0
   -4.6047    0.4696   -0.4448 C   0  0  0  0  0  0  0  0  0  0  0  0
   -5.0621    0.6335   -1.8859 C   0  0  0  0  0  0  0  0  0  0  0  0
    1.4036   -0.1692    1.5950 H   0  0  0  0  0  0  0  0  0  0  0  0
    0.8565   -2.1240    0.4712 H   0  0  0  0  0  0  0  0  0  0  0  0
    3.9621    0.3461    1.2283 H   0  0  0  0  0  0  0  0  0  0  0  0
    4.4135    1.2383   -0.2134 H   0  0  0  0  0  0  0  0  0  0  0  0
    3.0062   -2.7871   -0.5976 H   0  0  0  0  0  0  0  0  0  0  0  0
    3.1099   -2.0630    0.9975 H   0  0  0  0  0  0  0  0  0  0  0  0
    4.8675   -1.1710   -0.4394 H   0  0  0  0  0  0  0  0  0  0  0  0
    3.7064   -0.6519   -1.6482 H   0  0  0  0  0  0  0  0  0  0  0  0
   -0.3796    1.4351    0.9407 H   0  0  0  0  0  0  0  0  0  0  0  0
   -0.5206    0.6280   -0.6087 H   0  0  0  0  0  0  0  0  0  0  0  0
    2.2974    1.9303    2.1501 H   0  0  0  0  0  0  0  0  0  0  0  0
    3.0157    2.9916    0.9348 H   0  0  0  0  0  0  0  0  0  0  0  0
    1.2650    2.8470    1.0401 H   0  0  0  0  0  0  0  0  0  0  0  0
    1.0131    2.1569   -1.3640 H   0  0  0  0  0  0  0  0  0  0  0  0
    2.7321    2.5055   -1.4938 H   0  0  0  0  0  0  0  0  0  0  0  0
    2.1136    0.9793   -2.0880 H   0  0  0  0  0  0  0  0  0  0  0  0
   -0.2020   -1.3048   -1.6281 H   0  0  0  0  0  0  0  0  0  0  0  0
    1.3994   -0.9401   -2.2882 H   0  0  0  0  0  0  0  0  0  0  0  0
    0.9635   -2.5888   -1.8821 H   0  0  0  0  0  0  0  0  0  0  0  0
   -1.1284   -1.5237    0.6462 H   0  0  0  0  0  0  0  0  0  0  0  0
   -0.8762   -0.6839    2.1588 H   0  0  0  0  0  0  0  0  0  0  0  0
   -2.7588    0.8698    1.6050 H   0  0  0  0  0  0  0  0  0  0  0  0
   -3.0102   -0.8986   -0.8949 H   0  0  0  0  0  0  0  0  0  0  0  0
   -2.5497    0.8105   -0.9078 H   0  0  0  0  0  0  0  0  0  0  0  0
   -4.7531    1.4151    0.0896 H   0  0  0  0  0  0  0  0  0  0  0  0
   -5.2370   -0.2816    0.0415 H   0  0  0  0  0  0  0  0  0  0  0  0
   -3.1421   -1.1222    2.6545 H   0  0  0  0  0  0  0  0  0  0  0  0
   -4.9537   -0.3038   -2.4408 H   0  0  0  0  0  0  0  0  0  0  0  0
   -6.1160    0.9273   -1.9177 H   0  0  0  0  0  0  0  0  0  0  0  0
   -4.4791    1.4058   -2.3977 H   0  0  0  0  0  0  0  0  0  0  0  0
  1 13  1  0  0  0  0
  1 43  1  0  0  0  0
  2  3  1  0  0  0  0
  2  4  1  0  0  0  0
  2  8  1  0  0  0  0
  2 17  1  0  0  0  0
  3  5  1  0  0  0  0
  3  9  1  0  0  0  0
  3 10  1  0  0  0  0
  4  6  1  0  0  0  0
  4 11  1  0  0  0  0
  4 18  1  0  0  0  0
  5  7  1  0  0  0  0
  5 19  1  0  0  0  0
  5 20  1  0  0  0  0
  6  7  1  0  0  0  0
  6 21  1  0  0  0  0
  6 22  1  0  0  0  0
  7 23  1  0  0  0  0
  7 24  1  0  0  0  0
  8 12  1  0  0  0  0
  8 25  1  0  0  0  0
  8 26  1  0  0  0  0
  9 27  1  0  0  0  0
  9 28  1  0  0  0  0
  9 29  1  0  0  0  0
 10 30  1  0  0  0  0
 10 31  1  0  0  0  0
 10 32  1  0  0  0  0
 11 33  1  0  0  0  0
 11 34  1  0  0  0  0
 11 35  1  0  0  0  0
 12 13  1  0  0  0  0
 12 36  1  0  0  0  0
 12 37  1  0  0  0  0
 13 14  1  0  0  0  0
 13 38  1  0  0  0  0
 14 15  1  0  0  0  0
 14 39  1  0  0  0  0
 14 40  1  0  0  0  0
 15 16  1  0  0  0  0
 15 41  1  0  0  0  0
 15 42  1  0  0  0  0
 16 44  1  0  0  0  0
 16 45  1  0  0  0  0
 16 46  1  0  0  0  0
M  END
> <PUBCHEM_COMPOUND_CID>
116699

> <PUBCHEM_CONFORMER_RMSD>
0.8

> <PUBCHEM_CONFORMER_DIVERSEORDER>
4
43
53
8
49
62
58
18
55
14
74
73
69
24
75
28
63
37
59
60
42
17
76
26
40
12
65
68
20
44
11
67
34
39
15
5
35
23
2
27
56
10
30
16
25
70
38
51
19
72
6
22
48
31
46
1
36
13
54
52
57
64
21
29
50
47
7
61
9
3
71
66
32
33
41
45

> <PUBCHEM_MMFF94_PARTIAL_CHARGES>
3
1 -0.68
13 0.28
43 0.4

> <PUBCHEM_EFFECTIVE_ROTOR_COUNT>
6.2

> <PUBCHEM_PHARMACOPHORE_FEATURES>
5
1 1 acceptor
1 1 donor
1 16 hydrophobe
3 3 9 10 hydrophobe
6 2 3 4 5 6 7 rings

> <PUBCHEM_HEAVY_ATOM_COUNT>
16

> <PUBCHEM_ATOM_DEF_STEREO_COUNT>
0

> <PUBCHEM_ATOM_UDEF_STEREO_COUNT>
3

> <PUBCHEM_BOND_DEF_STEREO_COUNT>
0

> <PUBCHEM_BOND_UDEF_STEREO_COUNT>
0

> <PUBCHEM_ISOTOPIC_ATOM_COUNT>
0

> <PUBCHEM_COMPONENT_COUNT>
1

> <PUBCHEM_CACTVS_TAUTO_COUNT>
1

> <PUBCHEM_CONFORMER_ID>
0001C7DB00000004

> <PUBCHEM_MMFF94_ENERGY>
36.7255

> <PUBCHEM_FEATURE_SELFOVERLAP>
25.371

> <PUBCHEM_SHAPE_FINGERPRINT>
10646746 165 17312821593460507309
11471102 20 18413670205980096264
12236239 1 16917064451642142548
12500047 106 17530967990319687819
12633257 1 16661188347731377109
12654215 9 18261112967620979456
13134695 92 18341048532470610768
13296908 3 18186812399958847387
13836976 161 18060133249769346735
14251717 144 18130787845569293998
14993402 34 18060426802721691974
15048467 5 16153432753380766198
15219456 202 18260555549295304715
16945 1 18412554214900493746
18186145 218 18113339687380117041
18222031 100 18058729079533282718
18915474 69 16845285068769770965
192875 21 17988638562809032867
200 152 17917990555873993433
20233049 118 16226046669430690012
20279233 1 18186806876667912323
20645477 56 17530688702092734123
20645477 70 18342740702161363431
21065201 7 17240485823128582115
212847 35 16370997456616494397
21639500 275 18201722906828204065
22289505 5 18262508196089457541
22892500 29 18335414664685392108
22943178 12 18187090585090927179
231179 274 18261108577800464518
23402539 116 17749381585535807343
23402655 69 18412261722789388797
23557571 272 17676775357261201955
23559900 14 17894912893370631466
2838139 119 16155991402859261126
3060560 45 18202844353233626054
4028521 119 17822283545054976205
495365 180 18340192072683400121
5281201 14 18114189644090871967
6049 1 17968114035435949473
7471813 234 17704066270427968720
7615 1 17275111604655707321
81539 233 18335990865061288258

> <PUBCHEM_SHAPE_MULTIPOLES>
323.4
8.78
1.88
1.54
10.66
0.28
0.19
0.53
2.51
-2.18
0.09
1.52
0.01
0.79

> <PUBCHEM_SHAPE_SELFOVERLAP>
620.92

> <PUBCHEM_SHAPE_VOLUME>
198.1

> <PUBCHEM_COORDINATE_TYPE>
2
5
10

$$$$
