116740
  -OEChem-11232108553D

 34 35  0     1  0  0  0  0  0999 V2000
    1.3172    0.2163   -0.9564 O   0  0  0  0  0  0  0  0  0  0  0  0
    0.2353   -0.0351   -0.0160 C   0  0  1  0  0  0  0  0  0  0  0  0
   -0.9937    0.8221   -0.4758 C   0  0  1  0  0  0  0  0  0  0  0  0
   -2.2729    0.3780    0.2777 C   0  0  2  0  0  0  0  0  0  0  0  0
   -0.0852   -1.5281   -0.0253 C   0  0  0  0  0  0  0  0  0  0  0  0
   -2.5657   -1.1023   -0.0237 C   0  0  0  0  0  0  0  0  0  0  0  0
    0.7905    0.3791    1.3157 C   0  0  0  0  0  0  0  0  0  0  0  0
   -0.7459    2.3362   -0.3742 C   0  0  0  0  0  0  0  0  0  0  0  0
   -1.3524   -1.9788   -0.0326 C   0  0  0  0  0  0  0  0  0  0  0  0
    2.4112    0.8533   -0.2582 C   0  0  1  0  0  0  0  0  0  0  0  0
   -3.5114    1.2132   -0.0591 C   0  0  0  0  0  0  0  0  0  0  0  0
    2.0200    0.8698    1.1744 C   0  0  0  0  0  0  0  0  0  0  0  0
    1.0594   -2.5073   -0.0213 C   0  0  0  0  0  0  0  0  0  0  0  0
    3.6936    0.0838   -0.5250 C   0  0  0  0  0  0  0  0  0  0  0  0
   -1.1450    0.6257   -1.5488 H   0  0  0  0  0  0  0  0  0  0  0  0
   -2.0994    0.4804    1.3576 H   0  0  0  0  0  0  0  0  0  0  0  0
   -3.0560   -1.2007   -1.0006 H   0  0  0  0  0  0  0  0  0  0  0  0
   -3.2719   -1.4846    0.7236 H   0  0  0  0  0  0  0  0  0  0  0  0
    0.2685    0.2984    2.2584 H   0  0  0  0  0  0  0  0  0  0  0  0
    0.1868    2.6230   -0.8686 H   0  0  0  0  0  0  0  0  0  0  0  0
   -1.5425    2.8975   -0.8735 H   0  0  0  0  0  0  0  0  0  0  0  0
   -0.7037    2.6706    0.6672 H   0  0  0  0  0  0  0  0  0  0  0  0
   -1.5425   -3.0493   -0.0532 H   0  0  0  0  0  0  0  0  0  0  0  0
    2.5066    1.8751   -0.6408 H   0  0  0  0  0  0  0  0  0  0  0  0
   -3.4099    2.2400    0.3053 H   0  0  0  0  0  0  0  0  0  0  0  0
   -3.6859    1.2468   -1.1398 H   0  0  0  0  0  0  0  0  0  0  0  0
   -4.4043    0.7912    0.4151 H   0  0  0  0  0  0  0  0  0  0  0  0
    2.6310    1.2481    1.9801 H   0  0  0  0  0  0  0  0  0  0  0  0
    1.7026   -2.3490    0.8497 H   0  0  0  0  0  0  0  0  0  0  0  0
    1.6603   -2.3997   -0.9295 H   0  0  0  0  0  0  0  0  0  0  0  0
    0.7135   -3.5461    0.0174 H   0  0  0  0  0  0  0  0  0  0  0  0
    3.8885    0.0318   -1.6017 H   0  0  0  0  0  0  0  0  0  0  0  0
    4.5506    0.5594   -0.0374 H   0  0  0  0  0  0  0  0  0  0  0  0
    3.6257   -0.9495   -0.1689 H   0  0  0  0  0  0  0  0  0  0  0  0
  1  2  1  0  0  0  0
  1 10  1  0  0  0  0
  2  3  1  0  0  0  0
  2  5  1  0  0  0  0
  2  7  1  0  0  0  0
  3  4  1  0  0  0  0
  3  8  1  0  0  0  0
  3 15  1  0  0  0  0
  4  6  1  0  0  0  0
  4 11  1  0  0  0  0
  4 16  1  0  0  0  0
  5  9  2  0  0  0  0
  5 13  1  0  0  0  0
  6  9  1  0  0  0  0
  6 17  1  0  0  0  0
  6 18  1  0  0  0  0
  7 12  2  0  0  0  0
  7 19  1  0  0  0  0
  8 20  1  0  0  0  0
  8 21  1  0  0  0  0
  8 22  1  0  0  0  0
  9 23  1  0  0  0  0
 10 12  1  0  0  0  0
 10 14  1  0  0  0  0
 10 24  1  0  0  0  0
 11 25  1  0  0  0  0
 11 26  1  0  0  0  0
 11 27  1  0  0  0  0
 12 28  1  0  0  0  0
 13 29  1  0  0  0  0
 13 30  1  0  0  0  0
 13 31  1  0  0  0  0
 14 32  1  0  0  0  0
 14 33  1  0  0  0  0
 14 34  1  0  0  0  0
M  END
> <PUBCHEM_COMPOUND_CID>
116740

> <PUBCHEM_CONFORMER_RMSD>
0.4

> <PUBCHEM_CONFORMER_DIVERSEORDER>
27
16
2
31
11
7
17
32
22
4
18
15
30
1
20
28
19
14
21
24
8
25
6
26
23
12
3
9
13
29
10
5

> <PUBCHEM_MMFF94_PARTIAL_CHARGES>
12
1 -0.56
10 0.42
12 -0.29
13 0.14
19 0.15
2 0.56
23 0.15
28 0.15
5 -0.28
6 0.14
7 -0.29
9 -0.29

> <PUBCHEM_EFFECTIVE_ROTOR_COUNT>
1

> <PUBCHEM_PHARMACOPHORE_FEATURES>
3
1 1 acceptor
5 1 2 7 10 12 rings
6 2 3 4 5 6 9 rings

> <PUBCHEM_HEAVY_ATOM_COUNT>
14

> <PUBCHEM_ATOM_DEF_STEREO_COUNT>
0

> <PUBCHEM_ATOM_UDEF_STEREO_COUNT>
4

> <PUBCHEM_BOND_DEF_STEREO_COUNT>
0

> <PUBCHEM_BOND_UDEF_STEREO_COUNT>
0

> <PUBCHEM_ISOTOPIC_ATOM_COUNT>
0

> <PUBCHEM_COMPONENT_COUNT>
1

> <PUBCHEM_CACTVS_TAUTO_COUNT>
1

> <PUBCHEM_CONFORMER_ID>
0001C8040000001B

> <PUBCHEM_MMFF94_ENERGY>
23.7352

> <PUBCHEM_FEATURE_SELFOVERLAP>
15.228

> <PUBCHEM_SHAPE_FINGERPRINT>
10967382 1 18337954467773336781
11132069 177 18336820978591093649
12423570 1 11225750511170194786
12491281 212 18261684752032147240
12716758 59 18341331205452949354
13380535 21 18339367374833496475
13380535 76 18410008797726167223
14817 1 15010869420842870835
14993402 34 18261106434880770421
15557651 10 17988632008551905809
15775835 57 18412266107898140059
16945 1 18410566258579229664
18186145 218 18130799970467796360
193761 8 17905326230341858621
19868273 325 18262797500754436741
20510252 161 18199189675230087313
20511035 2 17692788420763507917
20588541 1 18413111632318839637
21501502 16 18267299829271824203
22344851 341 18337115540438871258
22802520 49 18271816756114155518
23235685 24 18335979805119847397
2334 1 18121779705716916493
23402539 116 18412537730531383140
23463225 33 18333728005427494410
23493267 7 17821732706460845745
23559900 14 18273218604292651140
2748010 2 18194956568210907609
276578 36 18341057311315042825
3286 77 17203045304307541674
5084963 1 17986961953610856587
5255222 1 18341043025895081040
528886 8 18409168813586140196
53812653 166 18343304755936866353
57177213 63 18261114036862257186
7364860 26 18126284142778598255
77492 1 17458898348940321928
81228 2 17907282605046233499

> <PUBCHEM_SHAPE_MULTIPOLES>
282.24
4.55
2.3
0.94
0.29
0.86
-0.2
-1.15
0.4
-0.59
0.16
0.42
-0.19
0.18

> <PUBCHEM_SHAPE_SELFOVERLAP>
582.528

> <PUBCHEM_SHAPE_VOLUME>
163.2

> <PUBCHEM_COORDINATE_TYPE>
2
5
10

$$$$
