11686063
  -OEChem-11232109243D

 84 88  0     1  0  0  0  0  0999 V2000
   -3.1072    1.7442    0.0207 O   0  0  0  0  0  0  0  0  0  0  0  0
    3.0990   -1.7220    0.0458 O   0  0  0  0  0  0  0  0  0  0  0  0
   -3.0814   -0.6084   -0.4630 O   0  0  0  0  0  0  0  0  0  0  0  0
    3.0527    0.6293   -0.4382 O   0  0  0  0  0  0  0  0  0  0  0  0
    0.3495    4.0112   -0.2491 O   0  0  0  0  0  0  0  0  0  0  0  0
   -0.3319   -4.0337   -0.1556 O   0  0  0  0  0  0  0  0  0  0  0  0
    1.0550    2.0545    0.9334 O   0  0  0  0  0  0  0  0  0  0  0  0
   -1.0773   -2.0259    0.9121 O   0  0  0  0  0  0  0  0  0  0  0  0
   -1.3894    2.0170    2.2564 O   0  0  0  0  0  0  0  0  0  0  0  0
    1.3504   -1.8590    2.2533 O   0  0  0  0  0  0  0  0  0  0  0  0
   -1.5400    1.8734   -2.5630 O   0  0  0  0  0  0  0  0  0  0  0  0
    1.6023   -2.0275   -2.5504 O   0  0  0  0  0  0  0  0  0  0  0  0
   -4.8448   -1.4995    2.6283 O   0  0  0  0  0  0  0  0  0  0  0  0
    4.8433    1.5296    2.6369 O   0  0  0  0  0  0  0  0  0  0  0  0
   -5.7652    1.8648   -0.7021 O   0  0  0  0  0  0  0  0  0  0  0  0
    5.7685   -1.8241   -0.6780 O   0  0  0  0  0  0  0  0  0  0  0  0
   -6.8879   -0.1313    1.0397 O   0  0  0  0  0  0  0  0  0  0  0  0
    6.8656    0.1949    1.0629 O   0  0  0  0  0  0  0  0  0  0  0  0
    1.6122    4.7315   -2.5414 O   0  0  0  0  0  0  0  0  0  0  0  0
   -1.5511   -4.8811   -2.4303 O   0  0  0  0  0  0  0  0  0  0  0  0
   -1.6946    1.9552   -0.1525 C   0  0  2  0  0  0  0  0  0  0  0  0
    1.6913   -1.9553   -0.1364 C   0  0  2  0  0  0  0  0  0  0  0  0
   -1.2414    2.7780    1.0614 C   0  0  2  0  0  0  0  0  0  0  0  0
    1.2228   -2.7082    1.1163 C   0  0  2  0  0  0  0  0  0  0  0  0
   -1.3885    2.7403   -1.4412 C   0  0  1  0  0  0  0  0  0  0  0  0
    1.4218   -2.8211   -1.3804 C   0  0  1  0  0  0  0  0  0  0  0  0
   -3.2409   -1.0335    0.8973 C   0  0  1  0  0  0  0  0  0  0  0  0
    3.2194    1.0568    0.9208 C   0  0  1  0  0  0  0  0  0  0  0  0
   -3.6725    0.6657   -0.7348 C   0  0  1  0  0  0  0  0  0  0  0  0
    3.6500   -0.6407   -0.7160 C   0  0  1  0  0  0  0  0  0  0  0  0
   -4.7235   -1.1859    1.2436 C   0  0  2  0  0  0  0  0  0  0  0  0
    4.7038    1.2150    1.2540 C   0  0  2  0  0  0  0  0  0  0  0  0
   -5.1798    0.5870   -0.4740 C   0  0  1  0  0  0  0  0  0  0  0  0
    5.1598   -0.5544   -0.4670 C   0  0  1  0  0  0  0  0  0  0  0  0
    0.2156    3.2141    0.9296 C   0  0  2  0  0  0  0  0  0  0  0  0
   -0.2258   -3.1740    0.9808 C   0  0  2  0  0  0  0  0  0  0  0  0
   -5.4832    0.1101    0.9454 C   0  0  1  0  0  0  0  0  0  0  0  0
    5.4676   -0.0759    0.9505 C   0  0  1  0  0  0  0  0  0  0  0  0
    0.0465    3.2948   -1.4496 C   0  0  1  0  0  0  0  0  0  0  0  0
   -0.0108   -3.3812   -1.3874 C   0  0  1  0  0  0  0  0  0  0  0  0
   -2.4641   -2.3425    1.0531 C   0  0  0  0  0  0  0  0  0  0  0  0
    2.4432    2.3662    1.0760 C   0  0  0  0  0  0  0  0  0  0  0  0
    0.2795    4.2598   -2.6100 C   0  0  0  0  0  0  0  0  0  0  0  0
   -0.2184   -4.4083   -2.4981 C   0  0  0  0  0  0  0  0  0  0  0  0
   -1.1894    0.9815   -0.1495 H   0  0  0  0  0  0  0  0  0  0  0  0
    1.1763   -0.9894   -0.2108 H   0  0  0  0  0  0  0  0  0  0  0  0
   -1.8896    3.6591    1.1528 H   0  0  0  0  0  0  0  0  0  0  0  0
    1.8776   -3.5725    1.2825 H   0  0  0  0  0  0  0  0  0  0  0  0
   -2.1174    3.5521   -1.5498 H   0  0  0  0  0  0  0  0  0  0  0  0
    2.1585   -3.6339   -1.4079 H   0  0  0  0  0  0  0  0  0  0  0  0
   -2.7720   -0.2914    1.5559 H   0  0  0  0  0  0  0  0  0  0  0  0
    2.7594    0.3169    1.5864 H   0  0  0  0  0  0  0  0  0  0  0  0
   -3.5368    0.8783   -1.7980 H   0  0  0  0  0  0  0  0  0  0  0  0
    3.5051   -0.8533   -1.7780 H   0  0  0  0  0  0  0  0  0  0  0  0
   -5.1710   -2.0120    0.6782 H   0  0  0  0  0  0  0  0  0  0  0  0
    5.1436    2.0389    0.6772 H   0  0  0  0  0  0  0  0  0  0  0  0
   -5.6399   -0.1143   -1.1823 H   0  0  0  0  0  0  0  0  0  0  0  0
    5.6090    0.1470   -1.1818 H   0  0  0  0  0  0  0  0  0  0  0  0
    0.4807    3.8360    1.7932 H   0  0  0  0  0  0  0  0  0  0  0  0
   -0.4945   -3.7507    1.8740 H   0  0  0  0  0  0  0  0  0  0  0  0
   -5.2488    0.8848    1.6852 H   0  0  0  0  0  0  0  0  0  0  0  0
    5.2441   -0.8528    1.6907 H   0  0  0  0  0  0  0  0  0  0  0  0
    0.7718    2.4769   -1.5547 H   0  0  0  0  0  0  0  0  0  0  0  0
   -0.7344   -2.5711   -1.5504 H   0  0  0  0  0  0  0  0  0  0  0  0
   -2.6284   -2.7846    2.0412 H   0  0  0  0  0  0  0  0  0  0  0  0
   -2.7551   -3.0571    0.2750 H   0  0  0  0  0  0  0  0  0  0  0  0
    2.5960    2.8122    2.0632 H   0  0  0  0  0  0  0  0  0  0  0  0
    2.7398    3.0796    0.2989 H   0  0  0  0  0  0  0  0  0  0  0  0
   -0.3857    5.1264   -2.5342 H   0  0  0  0  0  0  0  0  0  0  0  0
    0.1255    3.7689   -3.5757 H   0  0  0  0  0  0  0  0  0  0  0  0
    0.4479   -5.2669   -2.3631 H   0  0  0  0  0  0  0  0  0  0  0  0
   -0.0539   -3.9747   -3.4884 H   0  0  0  0  0  0  0  0  0  0  0  0
   -1.1125    2.5795    2.9996 H   0  0  0  0  0  0  0  0  0  0  0  0
    0.7415   -1.1101    2.1333 H   0  0  0  0  0  0  0  0  0  0  0  0
   -0.9107    1.1388   -2.4628 H   0  0  0  0  0  0  0  0  0  0  0  0
    1.6551   -2.6278   -3.3126 H   0  0  0  0  0  0  0  0  0  0  0  0
   -4.4525   -0.7700    3.1377 H   0  0  0  0  0  0  0  0  0  0  0  0
    4.5905    2.4601    2.7581 H   0  0  0  0  0  0  0  0  0  0  0  0
   -5.5572    2.1246   -1.6157 H   0  0  0  0  0  0  0  0  0  0  0  0
    5.5501   -2.1066   -1.5825 H   0  0  0  0  0  0  0  0  0  0  0  0
   -7.3413    0.7008    0.8213 H   0  0  0  0  0  0  0  0  0  0  0  0
    7.0969    0.8740    0.4064 H   0  0  0  0  0  0  0  0  0  0  0  0
    1.7381    5.3452   -3.2850 H   0  0  0  0  0  0  0  0  0  0  0  0
   -1.6598   -5.5367   -3.1400 H   0  0  0  0  0  0  0  0  0  0  0  0
  1 21  1  0  0  0  0
  1 29  1  0  0  0  0
  2 22  1  0  0  0  0
  2 30  1  0  0  0  0
  3 27  1  0  0  0  0
  3 29  1  0  0  0  0
  4 28  1  0  0  0  0
  4 30  1  0  0  0  0
  5 35  1  0  0  0  0
  5 39  1  0  0  0  0
  6 36  1  0  0  0  0
  6 40  1  0  0  0  0
  7 35  1  0  0  0  0
  7 42  1  0  0  0  0
  8 36  1  0  0  0  0
  8 41  1  0  0  0  0
  9 23  1  0  0  0  0
  9 73  1  0  0  0  0
 10 24  1  0  0  0  0
 10 74  1  0  0  0  0
 11 25  1  0  0  0  0
 11 75  1  0  0  0  0
 12 26  1  0  0  0  0
 12 76  1  0  0  0  0
 13 31  1  0  0  0  0
 13 77  1  0  0  0  0
 14 32  1  0  0  0  0
 14 78  1  0  0  0  0
 15 33  1  0  0  0  0
 15 79  1  0  0  0  0
 16 34  1  0  0  0  0
 16 80  1  0  0  0  0
 17 37  1  0  0  0  0
 17 81  1  0  0  0  0
 18 38  1  0  0  0  0
 18 82  1  0  0  0  0
 19 43  1  0  0  0  0
 19 83  1  0  0  0  0
 20 44  1  0  0  0  0
 20 84  1  0  0  0  0
 21 23  1  0  0  0  0
 21 25  1  0  0  0  0
 21 45  1  0  0  0  0
 22 24  1  0  0  0  0
 22 26  1  0  0  0  0
 22 46  1  0  0  0  0
 23 35  1  0  0  0  0
 23 47  1  0  0  0  0
 24 36  1  0  0  0  0
 24 48  1  0  0  0  0
 25 39  1  0  0  0  0
 25 49  1  0  0  0  0
 26 40  1  0  0  0  0
 26 50  1  0  0  0  0
 27 31  1  0  0  0  0
 27 41  1  0  0  0  0
 27 51  1  0  0  0  0
 28 32  1  0  0  0  0
 28 42  1  0  0  0  0
 28 52  1  0  0  0  0
 29 33  1  0  0  0  0
 29 53  1  0  0  0  0
 30 34  1  0  0  0  0
 30 54  1  0  0  0  0
 31 37  1  0  0  0  0
 31 55  1  0  0  0  0
 32 38  1  0  0  0  0
 32 56  1  0  0  0  0
 33 37  1  0  0  0  0
 33 57  1  0  0  0  0
 34 38  1  0  0  0  0
 34 58  1  0  0  0  0
 35 59  1  0  0  0  0
 36 60  1  0  0  0  0
 37 61  1  0  0  0  0
 38 62  1  0  0  0  0
 39 43  1  0  0  0  0
 39 63  1  0  0  0  0
 40 44  1  0  0  0  0
 40 64  1  0  0  0  0
 41 65  1  0  0  0  0
 41 66  1  0  0  0  0
 42 67  1  0  0  0  0
 42 68  1  0  0  0  0
 43 69  1  0  0  0  0
 43 70  1  0  0  0  0
 44 71  1  0  0  0  0
 44 72  1  0  0  0  0
M  END
> <PUBCHEM_COMPOUND_CID>
11686063

> <PUBCHEM_CONFORMER_RMSD>
1

> <PUBCHEM_CONFORMER_DIVERSEORDER>
1
2

> <PUBCHEM_MMFF94_PARTIAL_CHARGES>
56
1 -0.56
10 -0.68
11 -0.68
12 -0.68
13 -0.68
14 -0.68
15 -0.68
16 -0.68
17 -0.68
18 -0.68
19 -0.68
2 -0.56
20 -0.68
21 0.28
22 0.28
23 0.28
24 0.28
25 0.28
26 0.28
27 0.28
28 0.28
29 0.56
3 -0.56
30 0.56
31 0.28
32 0.28
33 0.28
34 0.28
35 0.56
36 0.56
37 0.28
38 0.28
39 0.28
4 -0.56
40 0.28
41 0.28
42 0.28
43 0.28
44 0.28
5 -0.56
6 -0.56
7 -0.56
73 0.4
74 0.4
75 0.4
76 0.4
77 0.4
78 0.4
79 0.4
8 -0.56
80 0.4
81 0.4
82 0.4
83 0.4
84 0.4
9 -0.68

> <PUBCHEM_EFFECTIVE_ROTOR_COUNT>
6.4

> <PUBCHEM_PHARMACOPHORE_FEATURES>
36
1 1 acceptor
1 10 acceptor
1 10 donor
1 11 acceptor
1 11 donor
1 12 acceptor
1 12 donor
1 13 acceptor
1 13 donor
1 14 acceptor
1 14 donor
1 15 acceptor
1 15 donor
1 16 acceptor
1 16 donor
1 17 acceptor
1 17 donor
1 18 acceptor
1 18 donor
1 19 acceptor
1 19 donor
1 2 acceptor
1 20 acceptor
1 20 donor
1 3 acceptor
1 4 acceptor
1 5 acceptor
1 6 acceptor
1 7 acceptor
1 8 acceptor
1 9 acceptor
1 9 donor
6 3 27 29 31 33 37 rings
6 4 28 30 32 34 38 rings
6 5 21 23 25 35 39 rings
6 6 22 24 26 36 40 rings

> <PUBCHEM_HEAVY_ATOM_COUNT>
44

> <PUBCHEM_ATOM_DEF_STEREO_COUNT>
20

> <PUBCHEM_ATOM_UDEF_STEREO_COUNT>
0

> <PUBCHEM_BOND_DEF_STEREO_COUNT>
0

> <PUBCHEM_BOND_UDEF_STEREO_COUNT>
0

> <PUBCHEM_ISOTOPIC_ATOM_COUNT>
0

> <PUBCHEM_COMPONENT_COUNT>
1

> <PUBCHEM_CACTVS_TAUTO_COUNT>
1

> <PUBCHEM_CONFORMER_ID>
00B250AF00000001

> <PUBCHEM_MMFF94_ENERGY>
137.297

> <PUBCHEM_FEATURE_SELFOVERLAP>
182.979

> <PUBCHEM_SHAPE_FINGERPRINT>
10006869 2 18263070037862396482
10675989 125 17106761861844388141
10838868 49 17678426771769978024
10864689 126 18268991990282718276
11513181 2 17838905085453847430
12128747 34 17915738670336081817
12156800 1 14497545400754912811
13402501 40 18410573967971582186
1361 2 18201142305271378831
14068700 686 18267581304333626388
14117953 113 18261391113697726229
14725015 67 18192145993073268546
150020 26 18050298260087679089
20764821 26 18123187067615023156
21133410 38 17631185078283360985
22113638 7 18338796831008396806
25019877 29 17489315204199418335
35225 105 18120057699146568086
354706 35 17469019091665982636
394071 54 18270136608685789339
469060 322 18115320981147269424
550186 83 17968643999840604032
86090 222 18272097079860328110

> <PUBCHEM_SHAPE_MULTIPOLES>
788.11
11.49
6.37
2.52
0.22
0.43
-0.83
-0.18
5.48
-0.02
-4.55
-0.05
-0.09
1.42

> <PUBCHEM_SHAPE_SELFOVERLAP>
1651.89

> <PUBCHEM_SHAPE_VOLUME>
433.9

> <PUBCHEM_COORDINATE_TYPE>
2
5
10

$$$$
