117477
  -OEChem-11232109473D

 26 25  0     0  0  0  0  0  0999 V2000
    1.8999   -0.4467   -0.0306 O   0  0  0  0  0  0  0  0  0  0  0  0
    1.0819    1.7068    0.0922 O   0  0  0  0  0  0  0  0  0  0  0  0
   -2.9738    0.1297    0.0504 C   0  0  0  0  0  0  0  0  0  0  0  0
   -1.5886    0.8011    0.0337 C   0  0  0  0  0  0  0  0  0  0  0  0
   -0.4299   -0.1949   -0.0410 C   0  0  0  0  0  0  0  0  0  0  0  0
   -3.1280   -0.8600    1.2062 C   0  0  0  0  0  0  0  0  0  0  0  0
   -3.2196   -0.5869   -1.2796 C   0  0  0  0  0  0  0  0  0  0  0  0
    0.9136    0.4972    0.0200 C   0  0  0  0  0  0  0  0  0  0  0  0
    3.2386    0.0582    0.0062 C   0  0  0  0  0  0  0  0  0  0  0  0
    4.2060   -1.1045   -0.0574 C   0  0  0  0  0  0  0  0  0  0  0  0
   -3.7279    0.9184    0.1639 H   0  0  0  0  0  0  0  0  0  0  0  0
   -1.5285    1.5023   -0.8086 H   0  0  0  0  0  0  0  0  0  0  0  0
   -1.4830    1.4090    0.9419 H   0  0  0  0  0  0  0  0  0  0  0  0
   -0.4660   -0.7568   -0.9795 H   0  0  0  0  0  0  0  0  0  0  0  0
   -0.4654   -0.8923    0.8017 H   0  0  0  0  0  0  0  0  0  0  0  0
   -2.8653   -0.3901    2.1596 H   0  0  0  0  0  0  0  0  0  0  0  0
   -2.5081   -1.7527    1.0774 H   0  0  0  0  0  0  0  0  0  0  0  0
   -4.1683   -1.1968    1.2778 H   0  0  0  0  0  0  0  0  0  0  0  0
   -3.0650    0.0906   -2.1260 H   0  0  0  0  0  0  0  0  0  0  0  0
   -2.5688   -1.4569   -1.4112 H   0  0  0  0  0  0  0  0  0  0  0  0
   -4.2539   -0.9451   -1.3293 H   0  0  0  0  0  0  0  0  0  0  0  0
    3.4018    0.7227   -0.8496 H   0  0  0  0  0  0  0  0  0  0  0  0
    3.3925    0.6174    0.9358 H   0  0  0  0  0  0  0  0  0  0  0  0
    5.2414   -0.7536   -0.0313 H   0  0  0  0  0  0  0  0  0  0  0  0
    4.0429   -1.7879    0.7825 H   0  0  0  0  0  0  0  0  0  0  0  0
    4.0520   -1.6843   -0.9735 H   0  0  0  0  0  0  0  0  0  0  0  0
  1  8  1  0  0  0  0
  1  9  1  0  0  0  0
  2  8  2  0  0  0  0
  3  4  1  0  0  0  0
  3  6  1  0  0  0  0
  3  7  1  0  0  0  0
  3 11  1  0  0  0  0
  4  5  1  0  0  0  0
  4 12  1  0  0  0  0
  4 13  1  0  0  0  0
  5  8  1  0  0  0  0
  5 14  1  0  0  0  0
  5 15  1  0  0  0  0
  6 16  1  0  0  0  0
  6 17  1  0  0  0  0
  6 18  1  0  0  0  0
  7 19  1  0  0  0  0
  7 20  1  0  0  0  0
  7 21  1  0  0  0  0
  9 10  1  0  0  0  0
  9 22  1  0  0  0  0
  9 23  1  0  0  0  0
 10 24  1  0  0  0  0
 10 25  1  0  0  0  0
 10 26  1  0  0  0  0
M  END
> <PUBCHEM_COMPOUND_CID>
117477

> <PUBCHEM_CONFORMER_RMSD>
0.6

> <PUBCHEM_CONFORMER_DIVERSEORDER>
1
25
24
18
23
5
26
19
22
17
6
16
21
13
20
14
27
4
3
15
9
2
7
11
8
12
10

> <PUBCHEM_MMFF94_PARTIAL_CHARGES>
5
1 -0.43
2 -0.57
5 0.06
8 0.66
9 0.28

> <PUBCHEM_EFFECTIVE_ROTOR_COUNT>
5

> <PUBCHEM_PHARMACOPHORE_FEATURES>
2
1 2 acceptor
3 3 6 7 hydrophobe

> <PUBCHEM_HEAVY_ATOM_COUNT>
10

> <PUBCHEM_ATOM_DEF_STEREO_COUNT>
0

> <PUBCHEM_ATOM_UDEF_STEREO_COUNT>
0

> <PUBCHEM_BOND_DEF_STEREO_COUNT>
0

> <PUBCHEM_BOND_UDEF_STEREO_COUNT>
0

> <PUBCHEM_ISOTOPIC_ATOM_COUNT>
0

> <PUBCHEM_COMPONENT_COUNT>
1

> <PUBCHEM_CACTVS_TAUTO_COUNT>
1

> <PUBCHEM_CONFORMER_ID>
0001CAE500000001

> <PUBCHEM_MMFF94_ENERGY>
6.9745

> <PUBCHEM_FEATURE_SELFOVERLAP>
10.148

> <PUBCHEM_SHAPE_FINGERPRINT>
10219947 1 18130788958176664364
11062470 55 12391513074686421690
11543360 7 15936704738942751030
12032990 46 18409174285807160938
12346645 44 10881397617057433580
12932741 1 17749381628833730725
12932764 1 17989488541010682465
14252887 29 18131357371677041966
14325111 11 18410293614118635016
14390081 3 11097852995197663279
18186145 218 17168146732575763956
18342897 55 11530482250489164840
190213 19 18040716965634581062
20201158 50 18334295353184872763
20281407 28 17894631439710202856
20645464 45 13039191420309575525
20645477 70 18411974758744455214
20711985 327 17917993884262943400
20871999 31 16153426177580386587
22485316 2 18343577413446042454

> <PUBCHEM_SHAPE_MULTIPOLES>
194.06
7.39
1.18
0.93
3.98
0.24
-0.05
-2.88
-0.25
0.34
0.08
-1.03
-0.24
0.15

> <PUBCHEM_SHAPE_SELFOVERLAP>
353.417

> <PUBCHEM_SHAPE_VOLUME>
124.8

> <PUBCHEM_COORDINATE_TYPE>
2
5
10

$$$$
