117568
  -OEChem-11232109133D

 31 31  0     0  0  0  0  0  0999 V2000
   -6.0547    0.4024    0.8416 O   0  0  0  0  0  0  0  0  0  0  0  0
   -1.2387   -0.1243   -0.0096 C   0  0  0  0  0  0  0  0  0  0  0  0
   -2.6364   -0.1114   -0.6307 C   0  0  0  0  0  0  0  0  0  0  0  0
   -0.1656   -0.4019   -1.0646 C   0  0  0  0  0  0  0  0  0  0  0  0
   -3.7120    0.1325    0.4255 C   0  0  0  0  0  0  0  0  0  0  0  0
    1.2190   -0.3822   -0.4696 C   0  0  0  0  0  0  0  0  0  0  0  0
   -5.1024    0.1889   -0.1912 C   0  0  0  0  0  0  0  0  0  0  0  0
    1.9269    0.8097   -0.4290 C   0  0  0  0  0  0  0  0  0  0  0  0
    1.7632   -1.5568    0.0283 C   0  0  0  0  0  0  0  0  0  0  0  0
    3.2082    0.8275    0.1219 C   0  0  0  0  0  0  0  0  0  0  0  0
    3.0445   -1.5392    0.5793 C   0  0  0  0  0  0  0  0  0  0  0  0
    3.7669   -0.3470    0.6261 C   0  0  0  0  0  0  0  0  0  0  0  0
    3.9811    2.1019    0.1720 C   0  0  0  0  0  0  0  0  0  0  0  0
   -1.1926   -0.8879    0.7772 H   0  0  0  0  0  0  0  0  0  0  0  0
   -1.0458    0.8409    0.4757 H   0  0  0  0  0  0  0  0  0  0  0  0
   -2.6887    0.6712   -1.3973 H   0  0  0  0  0  0  0  0  0  0  0  0
   -2.8262   -1.0684   -1.1318 H   0  0  0  0  0  0  0  0  0  0  0  0
   -0.2280    0.3404   -1.8709 H   0  0  0  0  0  0  0  0  0  0  0  0
   -0.3477   -1.3740   -1.5410 H   0  0  0  0  0  0  0  0  0  0  0  0
   -3.6823   -0.6571    1.1868 H   0  0  0  0  0  0  0  0  0  0  0  0
   -3.5151    1.0708    0.9594 H   0  0  0  0  0  0  0  0  0  0  0  0
   -5.3435   -0.7513   -0.6975 H   0  0  0  0  0  0  0  0  0  0  0  0
   -5.1780    1.0107   -0.9103 H   0  0  0  0  0  0  0  0  0  0  0  0
    1.4895    1.7239   -0.8222 H   0  0  0  0  0  0  0  0  0  0  0  0
    1.2077   -2.4899   -0.0019 H   0  0  0  0  0  0  0  0  0  0  0  0
    3.4795   -2.4536    0.9718 H   0  0  0  0  0  0  0  0  0  0  0  0
    4.7650   -0.3466    1.0563 H   0  0  0  0  0  0  0  0  0  0  0  0
    3.3147    2.9624    0.2952 H   0  0  0  0  0  0  0  0  0  0  0  0
    4.6756    2.1112    1.0190 H   0  0  0  0  0  0  0  0  0  0  0  0
    4.5539    2.2303   -0.7518 H   0  0  0  0  0  0  0  0  0  0  0  0
   -6.9304    0.4338    0.4199 H   0  0  0  0  0  0  0  0  0  0  0  0
  1  7  1  0  0  0  0
  1 31  1  0  0  0  0
  2  3  1  0  0  0  0
  2  4  1  0  0  0  0
  2 14  1  0  0  0  0
  2 15  1  0  0  0  0
  3  5  1  0  0  0  0
  3 16  1  0  0  0  0
  3 17  1  0  0  0  0
  4  6  1  0  0  0  0
  4 18  1  0  0  0  0
  4 19  1  0  0  0  0
  5  7  1  0  0  0  0
  5 20  1  0  0  0  0
  5 21  1  0  0  0  0
  6  8  1  0  0  0  0
  6  9  2  0  0  0  0
  7 22  1  0  0  0  0
  7 23  1  0  0  0  0
  8 10  2  0  0  0  0
  8 24  1  0  0  0  0
  9 11  1  0  0  0  0
  9 25  1  0  0  0  0
 10 12  1  0  0  0  0
 10 13  1  0  0  0  0
 11 12  2  0  0  0  0
 11 26  1  0  0  0  0
 12 27  1  0  0  0  0
 13 28  1  0  0  0  0
 13 29  1  0  0  0  0
 13 30  1  0  0  0  0
M  END
> <PUBCHEM_COMPOUND_CID>
117568

> <PUBCHEM_CONFORMER_RMSD>
0.6

> <PUBCHEM_CONFORMER_DIVERSEORDER>
1
53
79
50
33
38
46
28
26
42
52
29
20
71
51
4
66
35
30
24
56
75
32
49
72
34
39
2
31
78
9
80
14
67
3
57
6
37
76
40
12
47
59
22
55
48
25
13
45
27
11
43
73
19
70
7
77
18
5
63
69
74
10
44
61
65
41
23
8
54
68
17
36
60
64
58
21
16
62
15

> <PUBCHEM_MMFF94_PARTIAL_CHARGES>
15
1 -0.68
10 -0.14
11 -0.15
12 -0.15
13 0.14
24 0.15
25 0.15
26 0.15
27 0.15
31 0.4
4 0.14
6 -0.14
7 0.28
8 -0.15
9 -0.15

> <PUBCHEM_EFFECTIVE_ROTOR_COUNT>
5

> <PUBCHEM_PHARMACOPHORE_FEATURES>
4
1 1 acceptor
1 1 donor
4 2 3 4 5 hydrophobe
6 6 8 9 10 11 12 rings

> <PUBCHEM_HEAVY_ATOM_COUNT>
13

> <PUBCHEM_ATOM_DEF_STEREO_COUNT>
0

> <PUBCHEM_ATOM_UDEF_STEREO_COUNT>
0

> <PUBCHEM_BOND_DEF_STEREO_COUNT>
0

> <PUBCHEM_BOND_UDEF_STEREO_COUNT>
0

> <PUBCHEM_ISOTOPIC_ATOM_COUNT>
0

> <PUBCHEM_COMPONENT_COUNT>
1

> <PUBCHEM_CACTVS_TAUTO_COUNT>
1

> <PUBCHEM_CONFORMER_ID>
0001CB4000000001

> <PUBCHEM_MMFF94_ENERGY>
20.5471

> <PUBCHEM_FEATURE_SELFOVERLAP>
20.297

> <PUBCHEM_SHAPE_FINGERPRINT>
10354089 29 18411983572159602152
10378564 45 12031523033788583641
10498660 4 15051464747592600091
10912923 1 18130783465319862975
12251169 10 18409444778146424414
12507560 40 18113611253419045429
13675066 3 17676488337439494671
13690532 89 7925641002721830149
14252887 29 17458063746320730163
14445660 50 18341047510067973471
15477762 27 9223238455362255788
17834072 33 18343296007479023959
19050596 39 18412820304824509959
19784866 240 11170178839992556376
20369508 70 12901551264330297895
20645477 70 18335979774992117119
212847 35 17847059986760654152
23048698 100 18342740706287239971
23402539 116 18408595951802917301
23590187 302 9943806685768999143
26918003 58 18113899355793842827
3060560 45 12031789158447046900
4047638 21 18411700997745032274
42 15 17967534545558287039
449060 50 18261109703192672605
449060 62 18341893021719750668
5104073 3 18336539525078677147
5374978 207 18335138674535107017
57483677 85 18335420179391770980
8272917 22 18343023259417143814

> <PUBCHEM_SHAPE_MULTIPOLES>
261.66
11.01
1.49
0.88
17.37
0.19
0.05
3.03
-3.11
-2.43
-0.14
0.22
-0.05
-0.33

> <PUBCHEM_SHAPE_SELFOVERLAP>
518.95

> <PUBCHEM_SHAPE_VOLUME>
156.8

> <PUBCHEM_COORDINATE_TYPE>
2
5
10

$$$$
