117549
  -OEChem-11232108563D

 27 27  0     0  0  0  0  0  0999 V2000
    1.3314    1.4839    1.3011 O   0  0  0  0  0  0  0  0  0  0  0  0
   -0.0182    1.0422   -1.3392 C   0  0  0  0  0  0  0  0  0  0  0  0
   -1.3101    1.1795   -0.5300 C   0  0  0  0  0  0  0  0  0  0  0  0
    1.0142    0.1953   -0.6735 C   0  0  0  0  0  0  0  0  0  0  0  0
   -2.0329   -0.1554   -0.3233 C   0  0  0  0  0  0  0  0  0  0  0  0
    2.6228   -0.5407    1.0384 C   0  0  0  0  0  0  0  0  0  0  0  0
    2.5938   -1.5150   -0.1324 C   0  0  0  0  0  0  0  0  0  0  0  0
    1.6193    0.5011    0.6342 C   0  0  0  0  0  0  0  0  0  0  0  0
    1.5848   -0.9438   -1.0736 C   0  0  0  0  0  0  0  0  0  0  0  0
   -3.3308    0.0340    0.4628 C   0  0  0  0  0  0  0  0  0  0  0  0
   -4.0744   -1.2811    0.6355 C   0  0  0  0  0  0  0  0  0  0  0  0
    0.4029    2.0408   -1.5081 H   0  0  0  0  0  0  0  0  0  0  0  0
   -0.2535    0.6345   -2.3302 H   0  0  0  0  0  0  0  0  0  0  0  0
   -1.1081    1.6444    0.4419 H   0  0  0  0  0  0  0  0  0  0  0  0
   -1.9775    1.8664   -1.0659 H   0  0  0  0  0  0  0  0  0  0  0  0
   -1.3886   -0.8572    0.2187 H   0  0  0  0  0  0  0  0  0  0  0  0
   -2.2546   -0.6054   -1.2987 H   0  0  0  0  0  0  0  0  0  0  0  0
    3.6101   -0.0858    1.1578 H   0  0  0  0  0  0  0  0  0  0  0  0
    2.3100   -1.0222    1.9692 H   0  0  0  0  0  0  0  0  0  0  0  0
    2.2983   -2.5168    0.1954 H   0  0  0  0  0  0  0  0  0  0  0  0
    3.5761   -1.5871   -0.6103 H   0  0  0  0  0  0  0  0  0  0  0  0
    1.3429   -1.4288   -2.0105 H   0  0  0  0  0  0  0  0  0  0  0  0
   -3.1098    0.4562    1.4500 H   0  0  0  0  0  0  0  0  0  0  0  0
   -3.9811    0.7469   -0.0574 H   0  0  0  0  0  0  0  0  0  0  0  0
   -4.9982   -1.1228    1.2006 H   0  0  0  0  0  0  0  0  0  0  0  0
   -3.4635   -2.0084    1.1798 H   0  0  0  0  0  0  0  0  0  0  0  0
   -4.3395   -1.7124   -0.3350 H   0  0  0  0  0  0  0  0  0  0  0  0
  1  8  2  0  0  0  0
  2  3  1  0  0  0  0
  2  4  1  0  0  0  0
  2 12  1  0  0  0  0
  2 13  1  0  0  0  0
  3  5  1  0  0  0  0
  3 14  1  0  0  0  0
  3 15  1  0  0  0  0
  4  8  1  0  0  0  0
  4  9  2  0  0  0  0
  5 10  1  0  0  0  0
  5 16  1  0  0  0  0
  5 17  1  0  0  0  0
  6  7  1  0  0  0  0
  6  8  1  0  0  0  0
  6 18  1  0  0  0  0
  6 19  1  0  0  0  0
  7  9  1  0  0  0  0
  7 20  1  0  0  0  0
  7 21  1  0  0  0  0
  9 22  1  0  0  0  0
 10 11  1  0  0  0  0
 10 23  1  0  0  0  0
 10 24  1  0  0  0  0
 11 25  1  0  0  0  0
 11 26  1  0  0  0  0
 11 27  1  0  0  0  0
M  END
> <PUBCHEM_COMPOUND_CID>
117549

> <PUBCHEM_CONFORMER_RMSD>
0.6

> <PUBCHEM_CONFORMER_DIVERSEORDER>
1
23
30
42
2
36
15
22
34
41
4
35
12
39
19
33
3
11
16
43
17
37
20
38
40
6
27
7
9
14
13
21
5
25
29
18
10
31
32
28
8
24
26

> <PUBCHEM_MMFF94_PARTIAL_CHARGES>
8
1 -0.57
2 0.14
22 0.15
4 -0.12
6 0.06
7 0.14
8 0.49
9 -0.29

> <PUBCHEM_EFFECTIVE_ROTOR_COUNT>
4.4

> <PUBCHEM_PHARMACOPHORE_FEATURES>
4
1 1 acceptor
1 11 hydrophobe
4 2 3 5 10 hydrophobe
5 4 6 7 8 9 rings

> <PUBCHEM_HEAVY_ATOM_COUNT>
11

> <PUBCHEM_ATOM_DEF_STEREO_COUNT>
0

> <PUBCHEM_ATOM_UDEF_STEREO_COUNT>
0

> <PUBCHEM_BOND_DEF_STEREO_COUNT>
0

> <PUBCHEM_BOND_UDEF_STEREO_COUNT>
0

> <PUBCHEM_ISOTOPIC_ATOM_COUNT>
0

> <PUBCHEM_COMPONENT_COUNT>
1

> <PUBCHEM_CACTVS_TAUTO_COUNT>
7

> <PUBCHEM_CONFORMER_ID>
0001CB2D00000001

> <PUBCHEM_MMFF94_ENERGY>
-0.4529

> <PUBCHEM_FEATURE_SELFOVERLAP>
20.297

> <PUBCHEM_SHAPE_FINGERPRINT>
11471102 22 17917136222238018658
12251169 10 17703787041903380023
12696612 119 17561360686212701625
12897270 3 12396309144480562271
12932764 1 17917714625731834045
13764800 53 12895070773446493703
14252887 29 17968669331736680041
15775835 57 13758352271754063003
17357990 137 14979951510172525840
18186145 218 9295300451741701183
20281407 28 18261959544102938399
20361792 2 17313105254739011277
20711985 344 16951399932467670765
22169311 14 18272938189650538849
230 275 12175628356145231655
23402655 69 12035442831386118119
23419403 2 11389417224128872180
251288 83 17988079027697717471
276578 36 13830138290603913615
29004967 10 17843947179469730316
305870 269 13182739217008727420
449060 23 17821732693502045035
8030462 33 14490189393182220781
94968 8 16515979171714007291

> <PUBCHEM_SHAPE_MULTIPOLES>
220.51
5.7
1.5
1.26
5.86
0.04
0.12
3.28
1.2
0.12
-0.07
-0.72
-0.2
0.5

> <PUBCHEM_SHAPE_SELFOVERLAP>
431.928

> <PUBCHEM_SHAPE_VOLUME>
135.2

> <PUBCHEM_COORDINATE_TYPE>
2
5
10

$$$$
