118088
  -OEChem-11232109253D

 32 33  0     1  0  0  0  0  0999 V2000
    1.7917    0.8783    0.1241 O   0  0  0  0  0  0  0  0  0  0  0  0
    2.7748   -1.1870    0.4481 O   0  0  0  0  0  0  0  0  0  0  0  0
   -1.3883   -1.1947    0.1022 C   0  0  0  0  0  0  0  0  0  0  0  0
    0.0838   -0.7772   -0.2199 C   0  0  1  0  0  0  0  0  0  0  0  0
   -1.7747    0.0434   -0.7770 C   0  0  2  0  0  0  0  0  0  0  0  0
   -0.4953   -0.3265   -1.6021 C   0  0  0  0  0  0  0  0  0  0  0  0
    0.5662    0.3903    0.6583 C   0  0  2  0  0  0  0  0  0  0  0  0
   -1.6195    1.3420   -0.0380 C   0  0  0  0  0  0  0  0  0  0  0  0
   -1.8475   -2.5581   -0.3746 C   0  0  0  0  0  0  0  0  0  0  0  0
   -1.7692   -1.0614    1.5695 C   0  0  0  0  0  0  0  0  0  0  0  0
   -0.4696    1.4894    0.6468 C   0  0  0  0  0  0  0  0  0  0  0  0
   -2.7098    2.3558   -0.1097 C   0  0  0  0  0  0  0  0  0  0  0  0
    2.8193   -0.0218    0.0772 C   0  0  0  0  0  0  0  0  0  0  0  0
    4.0380    0.6277   -0.5049 C   0  0  0  0  0  0  0  0  0  0  0  0
    0.7368   -1.6492   -0.2877 H   0  0  0  0  0  0  0  0  0  0  0  0
   -2.7185   -0.0353   -1.3254 H   0  0  0  0  0  0  0  0  0  0  0  0
   -0.6227   -1.1166   -2.3495 H   0  0  0  0  0  0  0  0  0  0  0  0
    0.0229    0.5022   -2.0969 H   0  0  0  0  0  0  0  0  0  0  0  0
    0.7409    0.0675    1.6919 H   0  0  0  0  0  0  0  0  0  0  0  0
   -1.3740   -3.3575    0.2068 H   0  0  0  0  0  0  0  0  0  0  0  0
   -1.6138   -2.7523   -1.4251 H   0  0  0  0  0  0  0  0  0  0  0  0
   -2.9330   -2.6664   -0.2679 H   0  0  0  0  0  0  0  0  0  0  0  0
   -2.8507   -1.2040    1.6908 H   0  0  0  0  0  0  0  0  0  0  0  0
   -1.5422   -0.1276    2.0823 H   0  0  0  0  0  0  0  0  0  0  0  0
   -1.2798   -1.8487    2.1570 H   0  0  0  0  0  0  0  0  0  0  0  0
   -0.2686    2.3951    1.2100 H   0  0  0  0  0  0  0  0  0  0  0  0
   -2.4698    3.2537    0.4688 H   0  0  0  0  0  0  0  0  0  0  0  0
   -3.6415    1.9393    0.2862 H   0  0  0  0  0  0  0  0  0  0  0  0
   -2.8792    2.6589   -1.1477 H   0  0  0  0  0  0  0  0  0  0  0  0
    4.3449    1.4686    0.1221 H   0  0  0  0  0  0  0  0  0  0  0  0
    3.8277    0.9629   -1.5236 H   0  0  0  0  0  0  0  0  0  0  0  0
    4.8551   -0.0986   -0.5386 H   0  0  0  0  0  0  0  0  0  0  0  0
  1  7  1  0  0  0  0
  1 13  1  0  0  0  0
  2 13  2  0  0  0  0
  3  4  1  0  0  0  0
  3  5  1  0  0  0  0
  3  9  1  0  0  0  0
  3 10  1  0  0  0  0
  4  6  1  0  0  0  0
  4  7  1  0  0  0  0
  4 15  1  0  0  0  0
  5  6  1  0  0  0  0
  5  8  1  0  0  0  0
  5 16  1  0  0  0  0
  6 17  1  0  0  0  0
  6 18  1  0  0  0  0
  7 11  1  0  0  0  0
  7 19  1  0  0  0  0
  8 11  2  0  0  0  0
  8 12  1  0  0  0  0
  9 20  1  0  0  0  0
  9 21  1  0  0  0  0
  9 22  1  0  0  0  0
 10 23  1  0  0  0  0
 10 24  1  0  0  0  0
 10 25  1  0  0  0  0
 11 26  1  0  0  0  0
 12 27  1  0  0  0  0
 12 28  1  0  0  0  0
 12 29  1  0  0  0  0
 13 14  1  0  0  0  0
 14 30  1  0  0  0  0
 14 31  1  0  0  0  0
 14 32  1  0  0  0  0
M  END
> <PUBCHEM_COMPOUND_CID>
118088

> <PUBCHEM_CONFORMER_RMSD>
0.6

> <PUBCHEM_CONFORMER_DIVERSEORDER>
2
10
8
3
9
4
7
5
1
6

> <PUBCHEM_MMFF94_PARTIAL_CHARGES>
10
1 -0.43
11 -0.29
12 0.14
13 0.66
14 0.06
2 -0.57
26 0.15
5 0.12
7 0.42
8 -0.25

> <PUBCHEM_EFFECTIVE_ROTOR_COUNT>
2.6

> <PUBCHEM_PHARMACOPHORE_FEATURES>
3
1 2 acceptor
3 3 9 10 hydrophobe
7 3 4 5 6 7 8 11 rings

> <PUBCHEM_HEAVY_ATOM_COUNT>
14

> <PUBCHEM_ATOM_DEF_STEREO_COUNT>
0

> <PUBCHEM_ATOM_UDEF_STEREO_COUNT>
3

> <PUBCHEM_BOND_DEF_STEREO_COUNT>
0

> <PUBCHEM_BOND_UDEF_STEREO_COUNT>
0

> <PUBCHEM_ISOTOPIC_ATOM_COUNT>
0

> <PUBCHEM_COMPONENT_COUNT>
1

> <PUBCHEM_CACTVS_TAUTO_COUNT>
1

> <PUBCHEM_CONFORMER_ID>
0001CD4800000002

> <PUBCHEM_MMFF94_ENERGY>
44.4251

> <PUBCHEM_FEATURE_SELFOVERLAP>
15.223

> <PUBCHEM_SHAPE_FINGERPRINT>
10702982 57 18189888717370985361
10922049 32 18266744571789602281
12138202 97 18339642248234230013
12186901 62 18269580306750969868
12423570 1 16686785214960075987
12932764 1 17917427666208278816
13024252 1 17967530203066743407
15906896 17 18334297548271649387
16945 1 18339908394625674201
20645476 183 18335989657795871644
20871998 184 18411429422652218547
21296965 67 18123467443375894527
21501502 16 18336257955728690734
21524375 3 18120646938299896277
23402539 116 18272082829944804375
23419403 2 15796257697598061841
23559900 14 18130219364715886290
2748010 2 18125457318845666567
298252 57 17416105193273676525
369184 2 18342453755306373986
53812653 217 18272922843236641575
74978 22 18411133607059118980
8030462 33 18411125957664303668
81228 2 18263067972383631393
81539 233 17903632982804855549

> <PUBCHEM_SHAPE_MULTIPOLES>
276.37
4.65
2.2
1.13
5.84
0.06
0.02
-0.76
0.24
-2.11
-0.02
-0.4
0.22
-0.01

> <PUBCHEM_SHAPE_SELFOVERLAP>
579.661

> <PUBCHEM_SHAPE_VOLUME>
158.5

> <PUBCHEM_COORDINATE_TYPE>
2
5
10

$$$$
