118119
  -OEChem-11232109103D

 24 25  0     1  0  0  0  0  0999 V2000
    1.4733   -0.4550   -0.8707 O   0  0  0  0  0  0  0  0  0  0  0  0
    2.7727    0.9297    0.5142 O   0  0  0  0  0  0  0  0  0  0  0  0
    0.6798    0.6520   -0.4251 C   0  0  2  0  0  0  0  0  0  0  0  0
    1.3925    1.1067    0.8303 C   0  0  0  0  0  0  0  0  0  0  0  0
    2.7987   -0.1646   -0.4100 C   0  0  1  0  0  0  0  0  0  0  0  0
   -0.7533    0.2556   -0.1959 C   0  0  0  0  0  0  0  0  0  0  0  0
    3.3741   -1.3964    0.2635 C   0  0  0  0  0  0  0  0  0  0  0  0
   -1.0689   -1.0649    0.1236 C   0  0  0  0  0  0  0  0  0  0  0  0
   -1.7661    1.2084   -0.3033 C   0  0  0  0  0  0  0  0  0  0  0  0
   -2.3976   -1.4327    0.3359 C   0  0  0  0  0  0  0  0  0  0  0  0
   -3.0948    0.8409   -0.0910 C   0  0  0  0  0  0  0  0  0  0  0  0
   -3.4104   -0.4797    0.2285 C   0  0  0  0  0  0  0  0  0  0  0  0
    0.7456    1.4155   -1.2109 H   0  0  0  0  0  0  0  0  0  0  0  0
    1.1883    2.1496    1.0893 H   0  0  0  0  0  0  0  0  0  0  0  0
    1.1622    0.4777    1.6983 H   0  0  0  0  0  0  0  0  0  0  0  0
    3.4152    0.1230   -1.2680 H   0  0  0  0  0  0  0  0  0  0  0  0
    4.3833   -1.2013    0.6388 H   0  0  0  0  0  0  0  0  0  0  0  0
    2.7575   -1.6932    1.1193 H   0  0  0  0  0  0  0  0  0  0  0  0
    3.4009   -2.2435   -0.4288 H   0  0  0  0  0  0  0  0  0  0  0  0
   -0.2982   -1.8240    0.2240 H   0  0  0  0  0  0  0  0  0  0  0  0
   -1.5316    2.2404   -0.5501 H   0  0  0  0  0  0  0  0  0  0  0  0
   -2.6435   -2.4603    0.5873 H   0  0  0  0  0  0  0  0  0  0  0  0
   -3.8835    1.5829   -0.1740 H   0  0  0  0  0  0  0  0  0  0  0  0
   -4.4450   -0.7658    0.3945 H   0  0  0  0  0  0  0  0  0  0  0  0
  1  3  1  0  0  0  0
  1  5  1  0  0  0  0
  2  4  1  0  0  0  0
  2  5  1  0  0  0  0
  3  4  1  0  0  0  0
  3  6  1  0  0  0  0
  3 13  1  0  0  0  0
  4 14  1  0  0  0  0
  4 15  1  0  0  0  0
  5  7  1  0  0  0  0
  5 16  1  0  0  0  0
  6  8  2  0  0  0  0
  6  9  1  0  0  0  0
  7 17  1  0  0  0  0
  7 18  1  0  0  0  0
  7 19  1  0  0  0  0
  8 10  1  0  0  0  0
  8 20  1  0  0  0  0
  9 11  2  0  0  0  0
  9 21  1  0  0  0  0
 10 12  2  0  0  0  0
 10 22  1  0  0  0  0
 11 12  1  0  0  0  0
 11 23  1  0  0  0  0
 12 24  1  0  0  0  0
M  END
> <PUBCHEM_COMPOUND_CID>
118119

> <PUBCHEM_CONFORMER_RMSD>
0.6

> <PUBCHEM_CONFORMER_DIVERSEORDER>
1
4
3
2

> <PUBCHEM_MMFF94_PARTIAL_CHARGES>
16
1 -0.56
10 -0.15
11 -0.15
12 -0.15
2 -0.56
20 0.15
21 0.15
22 0.15
23 0.15
24 0.15
3 0.42
4 0.28
5 0.56
6 -0.14
8 -0.15
9 -0.15

> <PUBCHEM_EFFECTIVE_ROTOR_COUNT>
2

> <PUBCHEM_PHARMACOPHORE_FEATURES>
4
1 1 acceptor
1 2 acceptor
5 1 2 3 4 5 rings
6 6 8 9 10 11 12 rings

> <PUBCHEM_HEAVY_ATOM_COUNT>
12

> <PUBCHEM_ATOM_DEF_STEREO_COUNT>
0

> <PUBCHEM_ATOM_UDEF_STEREO_COUNT>
2

> <PUBCHEM_BOND_DEF_STEREO_COUNT>
0

> <PUBCHEM_BOND_UDEF_STEREO_COUNT>
0

> <PUBCHEM_ISOTOPIC_ATOM_COUNT>
0

> <PUBCHEM_COMPONENT_COUNT>
1

> <PUBCHEM_CACTVS_TAUTO_COUNT>
1

> <PUBCHEM_CONFORMER_ID>
0001CD6700000001

> <PUBCHEM_MMFF94_ENERGY>
30.2665

> <PUBCHEM_FEATURE_SELFOVERLAP>
20.338

> <PUBCHEM_SHAPE_FINGERPRINT>
10130415 120 18272369728911269920
10219947 1 16988844960492284828
10465860 250 18341604859758346850
10608611 8 18413102879144316153
11769659 78 18408318895408901283
12032990 46 18261398892463559115
124424 183 18342732971030040732
12716758 59 18335136479864672185
12932764 1 18059576948367172988
13296908 3 18408323306329589379
13581323 91 18333732433353906853
14144814 61 18409449180492937131
14325111 11 18410292510333145485
15219456 202 18343016718118459920
15775835 57 18261114041151748595
16945 1 18270689675080672477
17804303 29 18338241470399545542
19422 9 17676215662238915046
200 152 17489295396178649685
20201158 50 18273217464986997287
20279233 1 18413105078109016681
20281407 28 18336271214171167410
20361792 2 16370719357167470079
20528008 55 18342171202482743653
20645464 45 18272937111434360383
20645477 70 18343861095682782151
20871998 184 18270688704729709423
21501502 16 18341613766993088821
23402539 116 18201711835278175773
23463225 33 18260830354272453870
23552423 10 18042409191154497447
23559900 14 18338793408795233194
3248919 1 17458627864484221871
369184 2 18060420244105988813
57812782 119 18343861108720300615
69090 78 18201432597684079143
7364860 26 18191312786782408052
8809292 202 18408610248857976074

> <PUBCHEM_SHAPE_MULTIPOLES>
235.22
5.88
1.48
0.79
0.79
0.21
-0.02
1.13
-0.39
-0.09
-0.16
0.22
-0.06
0.34

> <PUBCHEM_SHAPE_SELFOVERLAP>
494.424

> <PUBCHEM_SHAPE_VOLUME>
132.8

> <PUBCHEM_COORDINATE_TYPE>
2
5
10

$$$$
