118148
  -OEChem-11232109023D

 27 26  0     1  0  0  0  0  0999 V2000
   -1.0834    1.0589   -0.8046 S   0  0  0  0  0  0  0  0  0  0  0  0
    0.2888    0.8540    1.4342 O   0  0  0  0  0  0  0  0  0  0  0  0
   -2.3807    0.4022    0.2665 C   0  0  2  0  0  0  0  0  0  0  0  0
   -2.1464   -1.0768    0.6083 C   0  0  0  0  0  0  0  0  0  0  0  0
   -3.7285    0.5925   -0.4254 C   0  0  0  0  0  0  0  0  0  0  0  0
   -2.1363   -1.9968   -0.6065 C   0  0  0  0  0  0  0  0  0  0  0  0
    0.3342    0.8092    0.2144 C   0  0  0  0  0  0  0  0  0  0  0  0
    2.6444   -0.1243   -0.1705 C   0  0  0  0  0  0  0  0  0  0  0  0
    1.5709    0.5770   -0.5803 C   0  0  0  0  0  0  0  0  0  0  0  0
    3.8309   -0.2763   -1.0887 C   0  0  0  0  0  0  0  0  0  0  0  0
    2.8060   -0.8195    1.1525 C   0  0  0  0  0  0  0  0  0  0  0  0
   -2.3898    0.9802    1.1978 H   0  0  0  0  0  0  0  0  0  0  0  0
   -1.2149   -1.2137    1.1680 H   0  0  0  0  0  0  0  0  0  0  0  0
   -2.9448   -1.4114    1.2834 H   0  0  0  0  0  0  0  0  0  0  0  0
   -3.9597    1.6586   -0.5366 H   0  0  0  0  0  0  0  0  0  0  0  0
   -4.5343    0.1521    0.1727 H   0  0  0  0  0  0  0  0  0  0  0  0
   -3.7675    0.1424   -1.4231 H   0  0  0  0  0  0  0  0  0  0  0  0
   -1.3329   -1.7575   -1.3083 H   0  0  0  0  0  0  0  0  0  0  0  0
   -1.9744   -3.0291   -0.2763 H   0  0  0  0  0  0  0  0  0  0  0  0
   -3.0889   -1.9814   -1.1429 H   0  0  0  0  0  0  0  0  0  0  0  0
    1.5724    0.9940   -1.5854 H   0  0  0  0  0  0  0  0  0  0  0  0
    4.7315    0.1236   -0.6110 H   0  0  0  0  0  0  0  0  0  0  0  0
    3.6971    0.2536   -2.0378 H   0  0  0  0  0  0  0  0  0  0  0  0
    3.9993   -1.3333   -1.3198 H   0  0  0  0  0  0  0  0  0  0  0  0
    1.8725   -0.9169    1.7100 H   0  0  0  0  0  0  0  0  0  0  0  0
    3.5260   -0.2802    1.7761 H   0  0  0  0  0  0  0  0  0  0  0  0
    3.1800   -1.8380    0.9996 H   0  0  0  0  0  0  0  0  0  0  0  0
  1  3  1  0  0  0  0
  1  7  1  0  0  0  0
  2  7  2  0  0  0  0
  3  4  1  0  0  0  0
  3  5  1  0  0  0  0
  3 12  1  0  0  0  0
  4  6  1  0  0  0  0
  4 13  1  0  0  0  0
  4 14  1  0  0  0  0
  5 15  1  0  0  0  0
  5 16  1  0  0  0  0
  5 17  1  0  0  0  0
  6 18  1  0  0  0  0
  6 19  1  0  0  0  0
  6 20  1  0  0  0  0
  7  9  1  0  0  0  0
  8  9  2  0  0  0  0
  8 10  1  0  0  0  0
  8 11  1  0  0  0  0
  9 21  1  0  0  0  0
 10 22  1  0  0  0  0
 10 23  1  0  0  0  0
 10 24  1  0  0  0  0
 11 25  1  0  0  0  0
 11 26  1  0  0  0  0
 11 27  1  0  0  0  0
M  END
> <PUBCHEM_COMPOUND_CID>
118148

> <PUBCHEM_CONFORMER_RMSD>
0.6

> <PUBCHEM_CONFORMER_DIVERSEORDER>
3
9
123
99
116
48
122
90
92
22
34
59
79
8
98
119
121
91
100
30
20
2
80
41
124
11
78
69
117
114
96
103
73
97
56
104
7
110
29
85
16
5
42
57
101
27
87
109
13
105
102
28
81
12
25
74
44
39
115
37
108
62
26
35
54
38
89
19
77
17
63
113
68
95
51
70
107
55
14
88
1
45
118
66
111
23
18
53
106
112
31
24
36
82
65
83
93
125
21
60
64
72
49
32
46
58
86
15
94
75
4
71
43
40
67
52
33
76
120
6
84
50
61
10
47

> <PUBCHEM_MMFF94_PARTIAL_CHARGES>
9
1 -0.37
10 0.14
11 0.14
2 -0.57
21 0.15
3 0.23
7 0.7
8 -0.28
9 -0.14

> <PUBCHEM_EFFECTIVE_ROTOR_COUNT>
4

> <PUBCHEM_PHARMACOPHORE_FEATURES>
3
1 5 hydrophobe
1 6 hydrophobe
3 8 10 11 hydrophobe

> <PUBCHEM_HEAVY_ATOM_COUNT>
11

> <PUBCHEM_ATOM_DEF_STEREO_COUNT>
0

> <PUBCHEM_ATOM_UDEF_STEREO_COUNT>
1

> <PUBCHEM_BOND_DEF_STEREO_COUNT>
0

> <PUBCHEM_BOND_UDEF_STEREO_COUNT>
0

> <PUBCHEM_ISOTOPIC_ATOM_COUNT>
0

> <PUBCHEM_COMPONENT_COUNT>
1

> <PUBCHEM_CACTVS_TAUTO_COUNT>
1

> <PUBCHEM_CONFORMER_ID>
0001CD8400000003

> <PUBCHEM_MMFF94_ENERGY>
16.9595

> <PUBCHEM_FEATURE_SELFOVERLAP>
15.224

> <PUBCHEM_SHAPE_FINGERPRINT>
12897270 3 17676491669917501748
12932764 1 18187082858181095020
13296908 3 17989208178662428090
14128692 85 18337680822648763260
14390081 3 7925639890214296823
14577589 140 18410299111961617191
14993402 34 18113332012400250589
15310529 11 17385725759637921580
15775835 57 18040157300972542502
18342897 137 17988919002904398911
18342897 55 16951141680589853070
19422 9 17385726868077139641
20201158 50 18202569453451100686
20279233 1 17989202642497082334
20281407 28 18343021094689920100
20523700 14 18186241723037656342
20645476 183 17749117702940651103
20711983 138 17560809796622289090
20871999 31 18040434434201501919
21119208 17 17895198783367701828
21293036 1 14562819866937556612
22485316 2 18411135840231109942
22959321 54 10807636918152691410
23402539 116 16588021325492212196
23402655 69 17168146698205496060
23552423 10 18042688497204495597
305870 269 10447391790135105533
3248919 1 17846782918235883017
528716 315 17749118815088923150
57812782 119 13182739225725086693
81228 2 17273435888383870256
9939556 21 18186804707414132717

> <PUBCHEM_SHAPE_MULTIPOLES>
224.36
6.33
1.47
1.17
1.74
0.56
-0.15
0.86
1.24
-0.94
0.19
0.49
0.08
-0.34

> <PUBCHEM_SHAPE_SELFOVERLAP>
405.168

> <PUBCHEM_SHAPE_VOLUME>
145.3

> <PUBCHEM_COORDINATE_TYPE>
2
5
10

$$$$
