11815386
  -OEChem-11232109263D

 23 22  0     1  0  0  0  0  0999 V2000
   -0.1040   -1.4810   -0.5151 O   0  0  0  0  0  0  0  0  0  0  0  0
   -2.6062   -0.9090    0.1225 O   0  0  0  0  0  0  0  0  0  0  0  0
    2.0111    0.3961    0.4585 C   0  0  0  0  0  0  0  0  0  0  0  0
    0.4952    0.4930    0.7260 C   0  0  0  0  0  0  0  0  0  0  0  0
   -0.3862   -0.0970   -0.3784 C   0  0  2  0  0  0  0  0  0  0  0  0
    2.3547    1.1244   -0.8436 C   0  0  0  0  0  0  0  0  0  0  0  0
    2.4951   -1.0525    0.3836 C   0  0  0  0  0  0  0  0  0  0  0  0
   -1.8645    0.0602   -0.0400 C   0  0  0  0  0  0  0  0  0  0  0  0
   -2.3951    1.4658    0.0866 C   0  0  0  0  0  0  0  0  0  0  0  0
    2.5283    0.8926    1.2889 H   0  0  0  0  0  0  0  0  0  0  0  0
    0.2792   -0.0145    1.6759 H   0  0  0  0  0  0  0  0  0  0  0  0
    0.2410    1.5489    0.8795 H   0  0  0  0  0  0  0  0  0  0  0  0
   -0.2213    0.3813   -1.3478 H   0  0  0  0  0  0  0  0  0  0  0  0
    3.4423    1.1962   -0.9568 H   0  0  0  0  0  0  0  0  0  0  0  0
    1.9729    0.6055   -1.7283 H   0  0  0  0  0  0  0  0  0  0  0  0
    1.9559    2.1443   -0.8411 H   0  0  0  0  0  0  0  0  0  0  0  0
    2.2599   -1.5349   -0.5692 H   0  0  0  0  0  0  0  0  0  0  0  0
    3.5876   -1.0763    0.4749 H   0  0  0  0  0  0  0  0  0  0  0  0
    2.0897   -1.6535    1.2038 H   0  0  0  0  0  0  0  0  0  0  0  0
   -0.2524   -1.9057    0.3472 H   0  0  0  0  0  0  0  0  0  0  0  0
   -2.1117    1.8841    1.0548 H   0  0  0  0  0  0  0  0  0  0  0  0
   -2.0026    2.0855   -0.7237 H   0  0  0  0  0  0  0  0  0  0  0  0
   -3.4860    1.4516    0.0087 H   0  0  0  0  0  0  0  0  0  0  0  0
  1  5  1  0  0  0  0
  1 20  1  0  0  0  0
  2  8  2  0  0  0  0
  3  4  1  0  0  0  0
  3  6  1  0  0  0  0
  3  7  1  0  0  0  0
  3 10  1  0  0  0  0
  4  5  1  0  0  0  0
  4 11  1  0  0  0  0
  4 12  1  0  0  0  0
  5  8  1  0  0  0  0
  5 13  1  0  0  0  0
  6 14  1  0  0  0  0
  6 15  1  0  0  0  0
  6 16  1  0  0  0  0
  7 17  1  0  0  0  0
  7 18  1  0  0  0  0
  7 19  1  0  0  0  0
  8  9  1  0  0  0  0
  9 21  1  0  0  0  0
  9 22  1  0  0  0  0
  9 23  1  0  0  0  0
M  END
> <PUBCHEM_COMPOUND_CID>
11815386

> <PUBCHEM_CONFORMER_RMSD>
0.6

> <PUBCHEM_CONFORMER_DIVERSEORDER>
1
10
2
8
9
5
6
7
11
3
4

> <PUBCHEM_MMFF94_PARTIAL_CHARGES>
6
1 -0.68
2 -0.57
20 0.4
5 0.34
8 0.45
9 0.06

> <PUBCHEM_EFFECTIVE_ROTOR_COUNT>
3

> <PUBCHEM_PHARMACOPHORE_FEATURES>
4
1 1 acceptor
1 1 donor
1 2 acceptor
3 3 6 7 hydrophobe

> <PUBCHEM_HEAVY_ATOM_COUNT>
9

> <PUBCHEM_ATOM_DEF_STEREO_COUNT>
0

> <PUBCHEM_ATOM_UDEF_STEREO_COUNT>
1

> <PUBCHEM_BOND_DEF_STEREO_COUNT>
0

> <PUBCHEM_BOND_UDEF_STEREO_COUNT>
0

> <PUBCHEM_ISOTOPIC_ATOM_COUNT>
0

> <PUBCHEM_COMPONENT_COUNT>
1

> <PUBCHEM_CACTVS_TAUTO_COUNT>
5

> <PUBCHEM_CONFORMER_ID>
00B449DA00000001

> <PUBCHEM_MMFF94_ENERGY>
9.9071

> <PUBCHEM_FEATURE_SELFOVERLAP>
20.306

> <PUBCHEM_SHAPE_FINGERPRINT>
12932764 1 17917709144883935657
14325111 11 18411980256239082329
14390081 3 18342172293077701073
15310529 11 18336547204553736304
19973954 147 18335421253054798493
20645464 45 17274530035871241010
20711983 171 18411423894934525741
21040471 1 18272082820711174290
23235687 12 18114460072063687140
23552423 10 18333730191317921754
29004967 10 12468356838492408669
3248919 1 18113891684607712176
5084963 1 18260821592401779697

> <PUBCHEM_SHAPE_MULTIPOLES>
173.48
4.18
1.43
0.83
0.47
0.03
-0.01
-0.4
0.07
0.06
-0.15
-0.29
-0.09
-0.35

> <PUBCHEM_SHAPE_SELFOVERLAP>
319.221

> <PUBCHEM_SHAPE_VOLUME>
110.5

> <PUBCHEM_COORDINATE_TYPE>
2
5
10

$$$$
