118262
  -OEChem-11232109013D

 24 23  0     1  0  0  0  0  0999 V2000
    0.8673   -0.9068    0.1243 O   0  0  0  0  0  0  0  0  0  0  0  0
    2.3840    0.6888   -0.5759 O   0  0  0  0  0  0  0  0  0  0  0  0
   -1.5182   -0.7903    0.0764 C   0  0  0  0  0  0  0  0  0  0  0  0
   -0.2143   -0.0346   -0.2082 C   0  0  1  0  0  0  0  0  0  0  0  0
   -2.7726    0.0154   -0.2656 C   0  0  0  0  0  0  0  0  0  0  0  0
   -4.0365   -0.7874    0.0011 C   0  0  0  0  0  0  0  0  0  0  0  0
   -0.0775    1.2207    0.6050 C   0  0  0  0  0  0  0  0  0  0  0  0
    2.1165   -0.4119   -0.1134 C   0  0  0  0  0  0  0  0  0  0  0  0
    0.1072    2.4352    0.0754 C   0  0  0  0  0  0  0  0  0  0  0  0
    3.1442   -1.4290    0.2809 C   0  0  0  0  0  0  0  0  0  0  0  0
   -1.5468   -1.0935    1.1318 H   0  0  0  0  0  0  0  0  0  0  0  0
   -1.5136   -1.7282   -0.4947 H   0  0  0  0  0  0  0  0  0  0  0  0
   -0.1668    0.1785   -1.2846 H   0  0  0  0  0  0  0  0  0  0  0  0
   -2.8127    0.9351    0.3282 H   0  0  0  0  0  0  0  0  0  0  0  0
   -2.7483    0.3092   -1.3214 H   0  0  0  0  0  0  0  0  0  0  0  0
   -4.1062   -1.0701    1.0564 H   0  0  0  0  0  0  0  0  0  0  0  0
   -4.0558   -1.7008   -0.6019 H   0  0  0  0  0  0  0  0  0  0  0  0
   -4.9218   -0.1953   -0.2513 H   0  0  0  0  0  0  0  0  0  0  0  0
   -0.1210    1.1273    1.6874 H   0  0  0  0  0  0  0  0  0  0  0  0
    0.2053    3.3043    0.7166 H   0  0  0  0  0  0  0  0  0  0  0  0
    0.1603    2.5853   -0.9972 H   0  0  0  0  0  0  0  0  0  0  0  0
    3.0128   -2.3377   -0.3117 H   0  0  0  0  0  0  0  0  0  0  0  0
    3.0577   -1.6487    1.3480 H   0  0  0  0  0  0  0  0  0  0  0  0
    4.1435   -1.0285    0.0876 H   0  0  0  0  0  0  0  0  0  0  0  0
  1  4  1  0  0  0  0
  1  8  1  0  0  0  0
  2  8  2  0  0  0  0
  3  4  1  0  0  0  0
  3  5  1  0  0  0  0
  3 11  1  0  0  0  0
  3 12  1  0  0  0  0
  4  7  1  0  0  0  0
  4 13  1  0  0  0  0
  5  6  1  0  0  0  0
  5 14  1  0  0  0  0
  5 15  1  0  0  0  0
  6 16  1  0  0  0  0
  6 17  1  0  0  0  0
  6 18  1  0  0  0  0
  7  9  2  0  0  0  0
  7 19  1  0  0  0  0
  8 10  1  0  0  0  0
  9 20  1  0  0  0  0
  9 21  1  0  0  0  0
 10 22  1  0  0  0  0
 10 23  1  0  0  0  0
 10 24  1  0  0  0  0
M  END
> <PUBCHEM_COMPOUND_CID>
118262

> <PUBCHEM_CONFORMER_RMSD>
0.6

> <PUBCHEM_CONFORMER_DIVERSEORDER>
1
28
63
48
69
34
72
42
59
58
40
45
54
50
44
25
64
32
51
52
37
36
38
62
66
49
14
4
47
71
46
5
21
67
23
53
27
60
8
41
22
17
43
70
2
61
68
39
18
31
7
19
65
16
33
15
9
56
30
55
6
29
24
57
20
13
10
35
26
11
12
3

> <PUBCHEM_MMFF94_PARTIAL_CHARGES>
10
1 -0.43
10 0.06
19 0.15
2 -0.57
20 0.15
21 0.15
4 0.42
7 -0.29
8 0.66
9 -0.3

> <PUBCHEM_EFFECTIVE_ROTOR_COUNT>
5

> <PUBCHEM_PHARMACOPHORE_FEATURES>
3
1 2 acceptor
1 6 hydrophobe
1 9 hydrophobe

> <PUBCHEM_HEAVY_ATOM_COUNT>
10

> <PUBCHEM_ATOM_DEF_STEREO_COUNT>
0

> <PUBCHEM_ATOM_UDEF_STEREO_COUNT>
1

> <PUBCHEM_BOND_DEF_STEREO_COUNT>
0

> <PUBCHEM_BOND_UDEF_STEREO_COUNT>
0

> <PUBCHEM_ISOTOPIC_ATOM_COUNT>
0

> <PUBCHEM_COMPONENT_COUNT>
1

> <PUBCHEM_CACTVS_TAUTO_COUNT>
1

> <PUBCHEM_CONFORMER_ID>
0001CDF600000001

> <PUBCHEM_MMFF94_ENERGY>
9.555

> <PUBCHEM_FEATURE_SELFOVERLAP>
15.223

> <PUBCHEM_SHAPE_FINGERPRINT>
10130415 120 18408039598107093547
10219947 1 18202847660268935295
12032990 46 18411704261809745223
14993402 34 18131355245219539095
19021347 4 17115499100523251416
20201158 50 18334013878166119947
20711985 344 17911550642955147508
20871998 184 17986947449616957566
20871998 22 18129669594909723334
22082395 3 18409167696973978979
23552423 10 18189904119150199334

> <PUBCHEM_SHAPE_MULTIPOLES>
194.06
5.39
1.85
0.69
2.85
1.27
-0.02
-3.06
0.18
-0.58
-0.16
-0.05
0.05
-0.18

> <PUBCHEM_SHAPE_SELFOVERLAP>
360.165

> <PUBCHEM_SHAPE_VOLUME>
121.7

> <PUBCHEM_COORDINATE_TYPE>
2
5
10

$$$$
