118292
  -OEChem-11232109273D

 40 40  0     0  0  0  0  0  0999 V2000
   -2.0414   -0.2403   -0.4880 O   0  0  0  0  0  0  0  0  0  0  0  0
    3.5493    0.4805   -1.2039 O   0  0  0  0  0  0  0  0  0  0  0  0
    0.0672   -0.1829    0.7646 C   0  0  0  0  0  0  0  0  0  0  0  0
    0.5255    1.2794    0.3996 C   0  0  0  0  0  0  0  0  0  0  0  0
    0.8121   -1.3571    0.0252 C   0  0  0  0  0  0  0  0  0  0  0  0
    2.0640    1.3773    0.4508 C   0  0  0  0  0  0  0  0  0  0  0  0
    2.3378   -1.1382    0.0846 C   0  0  0  0  0  0  0  0  0  0  0  0
    2.7120    0.2622   -0.3307 C   0  0  0  0  0  0  0  0  0  0  0  0
   -0.0318    2.2674    1.4575 C   0  0  0  0  0  0  0  0  0  0  0  0
    0.0349    1.7825   -0.9748 C   0  0  0  0  0  0  0  0  0  0  0  0
    0.3858   -1.5536   -1.4453 C   0  0  0  0  0  0  0  0  0  0  0  0
    0.5137   -2.6930    0.7551 C   0  0  0  0  0  0  0  0  0  0  0  0
   -1.4307   -0.3484    0.7463 C   0  0  0  0  0  0  0  0  0  0  0  0
   -2.1634   -0.5855    1.8400 C   0  0  0  0  0  0  0  0  0  0  0  0
   -3.3543    0.2667   -0.3539 C   0  0  0  0  0  0  0  0  0  0  0  0
   -3.9806    0.3830   -1.7272 C   0  0  0  0  0  0  0  0  0  0  0  0
    0.3785   -0.2984    1.8169 H   0  0  0  0  0  0  0  0  0  0  0  0
    2.4306    1.3021    1.4823 H   0  0  0  0  0  0  0  0  0  0  0  0
    2.4147    2.3382    0.0558 H   0  0  0  0  0  0  0  0  0  0  0  0
    2.8669   -1.8523   -0.5576 H   0  0  0  0  0  0  0  0  0  0  0  0
    2.7176   -1.2820    1.1040 H   0  0  0  0  0  0  0  0  0  0  0  0
    0.2546    1.9682    2.4721 H   0  0  0  0  0  0  0  0  0  0  0  0
    0.3577    3.2791    1.2930 H   0  0  0  0  0  0  0  0  0  0  0  0
   -1.1244    2.3320    1.4208 H   0  0  0  0  0  0  0  0  0  0  0  0
    0.3924    2.8077   -1.1412 H   0  0  0  0  0  0  0  0  0  0  0  0
    0.4158    1.2071   -1.8146 H   0  0  0  0  0  0  0  0  0  0  0  0
   -1.0522    1.8445   -1.0471 H   0  0  0  0  0  0  0  0  0  0  0  0
    0.6075   -0.7029   -2.0845 H   0  0  0  0  0  0  0  0  0  0  0  0
    0.9411   -2.3952   -1.8811 H   0  0  0  0  0  0  0  0  0  0  0  0
   -0.6682   -1.8188   -1.5548 H   0  0  0  0  0  0  0  0  0  0  0  0
    1.1025   -3.5134    0.3278 H   0  0  0  0  0  0  0  0  0  0  0  0
    0.7654   -2.6301    1.8198 H   0  0  0  0  0  0  0  0  0  0  0  0
   -0.5411   -2.9763    0.6741 H   0  0  0  0  0  0  0  0  0  0  0  0
   -3.2294   -0.7490    1.8965 H   0  0  0  0  0  0  0  0  0  0  0  0
   -1.6631   -0.6615    2.8030 H   0  0  0  0  0  0  0  0  0  0  0  0
   -4.0174   -0.4261    0.1742 H   0  0  0  0  0  0  0  0  0  0  0  0
   -3.3569    1.2517    0.1298 H   0  0  0  0  0  0  0  0  0  0  0  0
   -5.0043    0.7629   -1.6620 H   0  0  0  0  0  0  0  0  0  0  0  0
   -3.3950    1.0580   -2.3603 H   0  0  0  0  0  0  0  0  0  0  0  0
   -3.9957   -0.5897   -2.2305 H   0  0  0  0  0  0  0  0  0  0  0  0
  1 13  1  0  0  0  0
  1 15  1  0  0  0  0
  2  8  2  0  0  0  0
  3  4  1  0  0  0  0
  3  5  1  0  0  0  0
  3 13  1  0  0  0  0
  3 17  1  0  0  0  0
  4  6  1  0  0  0  0
  4  9  1  0  0  0  0
  4 10  1  0  0  0  0
  5  7  1  0  0  0  0
  5 11  1  0  0  0  0
  5 12  1  0  0  0  0
  6  8  1  0  0  0  0
  6 18  1  0  0  0  0
  6 19  1  0  0  0  0
  7  8  1  0  0  0  0
  7 20  1  0  0  0  0
  7 21  1  0  0  0  0
  9 22  1  0  0  0  0
  9 23  1  0  0  0  0
  9 24  1  0  0  0  0
 10 25  1  0  0  0  0
 10 26  1  0  0  0  0
 10 27  1  0  0  0  0
 11 28  1  0  0  0  0
 11 29  1  0  0  0  0
 11 30  1  0  0  0  0
 12 31  1  0  0  0  0
 12 32  1  0  0  0  0
 12 33  1  0  0  0  0
 13 14  2  0  0  0  0
 14 34  1  0  0  0  0
 14 35  1  0  0  0  0
 15 16  1  0  0  0  0
 15 36  1  0  0  0  0
 15 37  1  0  0  0  0
 16 38  1  0  0  0  0
 16 39  1  0  0  0  0
 16 40  1  0  0  0  0
M  END
> <PUBCHEM_COMPOUND_CID>
118292

> <PUBCHEM_CONFORMER_RMSD>
0.6

> <PUBCHEM_CONFORMER_DIVERSEORDER>
2
14
20
16
7
10
15
18
1
11
6
3
12
9
4
13
19
8
5
17

> <PUBCHEM_MMFF94_PARTIAL_CHARGES>
11
1 -0.36
13 -0.06
14 -0.3
15 0.28
2 -0.57
3 0.14
34 0.15
35 0.15
6 0.06
7 0.06
8 0.45

> <PUBCHEM_EFFECTIVE_ROTOR_COUNT>
4

> <PUBCHEM_PHARMACOPHORE_FEATURES>
5
1 1 acceptor
1 2 acceptor
3 4 9 10 hydrophobe
3 5 11 12 hydrophobe
6 3 4 5 6 7 8 rings

> <PUBCHEM_HEAVY_ATOM_COUNT>
16

> <PUBCHEM_ATOM_DEF_STEREO_COUNT>
0

> <PUBCHEM_ATOM_UDEF_STEREO_COUNT>
0

> <PUBCHEM_BOND_DEF_STEREO_COUNT>
0

> <PUBCHEM_BOND_UDEF_STEREO_COUNT>
0

> <PUBCHEM_ISOTOPIC_ATOM_COUNT>
0

> <PUBCHEM_COMPONENT_COUNT>
1

> <PUBCHEM_CACTVS_TAUTO_COUNT>
2

> <PUBCHEM_CONFORMER_ID>
0001CE1400000002

> <PUBCHEM_MMFF94_ENERGY>
56.9895

> <PUBCHEM_FEATURE_SELFOVERLAP>
25.371

> <PUBCHEM_SHAPE_FINGERPRINT>
104564 63 18199201589200672145
10863032 1 17240204352262059466
11769659 78 15410625739632630188
12138202 97 17749106716503835947
12654215 9 18187919543374184437
13380536 237 17338141344614230200
13380536 243 18271804657112025174
13464514 151 18115866300465395941
14251745 187 18261663814298947781
14617773 55 17984711012706241384
14817 1 14475559170866462587
14993402 34 17989204862757726382
15757776 16 18342728585910759551
15775835 57 18341045310828232319
15852999 172 17554304192426610096
16945 1 18201731647413607914
18186145 218 18342181110666437873
19010151 120 17774996873520887177
20511035 2 17766302120605436682
21501502 16 18121499050957568584
21947302 44 17823125753344022791
22112679 90 17631172983244089299
22802520 49 17968939656915025465
2334 1 17765724903023774704
23402539 116 18059588957760455388
23493267 7 17385729109992033168
23526113 38 17968373451497693843
23557571 272 16951143840631309579
23559900 14 17749385911222327266
25 1 18334293145856246331
2748010 2 17910970358914392688
276578 36 13695864766921394657
3060560 45 18199729462509199503
353137 74 18337962177297785320
5084963 1 18050576432218876571
5255222 1 17473846381033805217
528886 8 18187080680495356984
63268167 104 18271525389664160418
77492 1 17274830155380176307
81228 2 17112684896359410019

> <PUBCHEM_SHAPE_MULTIPOLES>
317.53
4.77
2.27
1.58
2.79
0.26
0.01
-0.53
-2.28
-0.91
0.49
0.89
-0.07
0.23

> <PUBCHEM_SHAPE_SELFOVERLAP>
634.421

> <PUBCHEM_SHAPE_VOLUME>
188.8

> <PUBCHEM_COORDINATE_TYPE>
2
5
10

$$$$
