118201
  -OEChem-11232109133D

 32 32  0     0  0  0  0  0  0999 V2000
    1.9162   -0.0406    0.3667 O   0  0  0  0  0  0  0  0  0  0  0  0
    1.3806    0.0079   -1.8850 O   0  0  0  0  0  0  0  0  0  0  0  0
   -1.0778    1.1626   -0.0056 C   0  0  0  0  0  0  0  0  0  0  0  0
   -2.3100    0.9474    0.9286 C   0  0  0  0  0  0  0  0  0  0  0  0
   -0.2999   -0.1473   -0.2195 C   0  0  0  0  0  0  0  0  0  0  0  0
   -0.2212    2.2704    0.6463 C   0  0  0  0  0  0  0  0  0  0  0  0
   -1.5657    1.6643   -1.3821 C   0  0  0  0  0  0  0  0  0  0  0  0
   -0.8676   -1.3624   -0.0387 C   0  0  0  0  0  0  0  0  0  0  0  0
   -2.9590   -0.3924    0.7814 C   0  0  0  0  0  0  0  0  0  0  0  0
   -2.2757   -1.4492    0.3281 C   0  0  0  0  0  0  0  0  0  0  0  0
    1.0891   -0.0506   -0.7057 C   0  0  0  0  0  0  0  0  0  0  0  0
   -0.2235   -2.7125   -0.2134 C   0  0  0  0  0  0  0  0  0  0  0  0
    3.3101    0.0510    0.0551 C   0  0  0  0  0  0  0  0  0  0  0  0
    4.1045    0.0514    1.3438 C   0  0  0  0  0  0  0  0  0  0  0  0
   -3.0591    1.7269    0.7399 H   0  0  0  0  0  0  0  0  0  0  0  0
   -2.0192    1.0522    1.9826 H   0  0  0  0  0  0  0  0  0  0  0  0
   -0.8196    3.1687    0.8384 H   0  0  0  0  0  0  0  0  0  0  0  0
    0.1986    1.9382    1.6028 H   0  0  0  0  0  0  0  0  0  0  0  0
    0.6130    2.5697    0.0015 H   0  0  0  0  0  0  0  0  0  0  0  0
   -2.2053    0.9260   -1.8795 H   0  0  0  0  0  0  0  0  0  0  0  0
   -2.1456    2.5892   -1.2823 H   0  0  0  0  0  0  0  0  0  0  0  0
   -0.7257    1.8801   -2.0523 H   0  0  0  0  0  0  0  0  0  0  0  0
   -3.9976   -0.5030    1.0763 H   0  0  0  0  0  0  0  0  0  0  0  0
   -2.7725   -2.4112    0.2448 H   0  0  0  0  0  0  0  0  0  0  0  0
   -0.2831   -3.2894    0.7162 H   0  0  0  0  0  0  0  0  0  0  0  0
    0.8349   -2.6396   -0.4808 H   0  0  0  0  0  0  0  0  0  0  0  0
   -0.7223   -3.2786   -1.0077 H   0  0  0  0  0  0  0  0  0  0  0  0
    3.6039   -0.8066   -0.5607 H   0  0  0  0  0  0  0  0  0  0  0  0
    3.5005    0.9779   -0.4975 H   0  0  0  0  0  0  0  0  0  0  0  0
    5.1770    0.1210    1.1422 H   0  0  0  0  0  0  0  0  0  0  0  0
    3.8082    0.8932    1.9783 H   0  0  0  0  0  0  0  0  0  0  0  0
    3.9104   -0.8617    1.9162 H   0  0  0  0  0  0  0  0  0  0  0  0
  1 11  1  0  0  0  0
  1 13  1  0  0  0  0
  2 11  2  0  0  0  0
  3  4  1  0  0  0  0
  3  5  1  0  0  0  0
  3  6  1  0  0  0  0
  3  7  1  0  0  0  0
  4  9  1  0  0  0  0
  4 15  1  0  0  0  0
  4 16  1  0  0  0  0
  5  8  2  0  0  0  0
  5 11  1  0  0  0  0
  6 17  1  0  0  0  0
  6 18  1  0  0  0  0
  6 19  1  0  0  0  0
  7 20  1  0  0  0  0
  7 21  1  0  0  0  0
  7 22  1  0  0  0  0
  8 10  1  0  0  0  0
  8 12  1  0  0  0  0
  9 10  2  0  0  0  0
  9 23  1  0  0  0  0
 10 24  1  0  0  0  0
 12 25  1  0  0  0  0
 12 26  1  0  0  0  0
 12 27  1  0  0  0  0
 13 14  1  0  0  0  0
 13 28  1  0  0  0  0
 13 29  1  0  0  0  0
 14 30  1  0  0  0  0
 14 31  1  0  0  0  0
 14 32  1  0  0  0  0
M  END
> <PUBCHEM_COMPOUND_CID>
118201

> <PUBCHEM_CONFORMER_RMSD>
0.6

> <PUBCHEM_CONFORMER_DIVERSEORDER>
2
10
8
5
13
6
19
9
14
1
7
11
18
3
12
16
17
4
15

> <PUBCHEM_MMFF94_PARTIAL_CHARGES>
13
1 -0.43
10 -0.15
11 0.71
12 0.14
13 0.28
2 -0.57
23 0.15
24 0.15
3 0.14
4 0.14
5 -0.12
8 -0.14
9 -0.29

> <PUBCHEM_EFFECTIVE_ROTOR_COUNT>
3.4

> <PUBCHEM_PHARMACOPHORE_FEATURES>
3
1 2 acceptor
3 3 6 7 hydrophobe
6 3 4 5 8 9 10 rings

> <PUBCHEM_HEAVY_ATOM_COUNT>
14

> <PUBCHEM_ATOM_DEF_STEREO_COUNT>
0

> <PUBCHEM_ATOM_UDEF_STEREO_COUNT>
0

> <PUBCHEM_BOND_DEF_STEREO_COUNT>
0

> <PUBCHEM_BOND_UDEF_STEREO_COUNT>
0

> <PUBCHEM_ISOTOPIC_ATOM_COUNT>
0

> <PUBCHEM_COMPONENT_COUNT>
1

> <PUBCHEM_CACTVS_TAUTO_COUNT>
1

> <PUBCHEM_CONFORMER_ID>
0001CDB900000002

> <PUBCHEM_MMFF94_ENERGY>
32.5267

> <PUBCHEM_FEATURE_SELFOVERLAP>
15.223

> <PUBCHEM_SHAPE_FINGERPRINT>
11132069 177 18412550903048165835
11680986 33 17901388883687936931
12251169 10 18271243940763156840
12382932 28 18341621420556193250
12423570 1 17345761918204397039
13024252 1 15864066559746924289
13214271 11 17704070694159724801
13296909 8 18187915175735478756
13380536 237 17901101924000832271
14614273 12 18334858256252077165
14817 1 8426096652424444823
15219456 202 17703801279836049870
15375462 478 17385729083953158261
15852999 172 17826780452627368797
16945 1 18269578129286887931
17780758 139 17829571061190433666
17846911 113 18342457015160282065
20645464 45 17988928859680204738
20871998 184 18335139778077867039
21501502 16 18054510484780893425
21650355 55 18339070605309238642
23402539 116 18058718217212597847
23419403 2 17054670677411527971
23552423 10 17254007857634544471
23559900 14 18199484198897666190
257057 1 17479723266516427199
27216 239 17130407185816381082
2748010 2 17903375714242108951
5084963 1 17826257114977885863
53812654 25 18265060299995178359
5706482 22 18265034860882635826
77492 1 17749402493679229886
81228 2 18268987772799465390
90316 7 18334572438831867352

> <PUBCHEM_SHAPE_MULTIPOLES>
276.37
4.83
2.22
1.27
5.2
0.51
0.33
0.02
-2.13
-1.21
0.06
0.3
-0.33
0.25

> <PUBCHEM_SHAPE_SELFOVERLAP>
557.498

> <PUBCHEM_SHAPE_VOLUME>
162.7

> <PUBCHEM_COORDINATE_TYPE>
2
5
10

$$$$
