118641
  -OEChem-11232109163D

 26 25  0     0  0  0  0  0  0999 V2000
   -1.1217    1.0010    0.1740 S   0  0  0  0  0  0  0  0  0  0  0  0
    0.3049   -0.9754    1.1794 O   0  0  0  0  0  0  0  0  0  0  0  0
    2.5769    0.1493   -0.5811 C   0  0  0  0  0  0  0  0  0  0  0  0
    1.1120   -0.1364   -0.9511 C   0  0  0  0  0  0  0  0  0  0  0  0
    2.6882    1.5123    0.1048 C   0  0  0  0  0  0  0  0  0  0  0  0
    3.1441   -0.9380    0.3350 C   0  0  0  0  0  0  0  0  0  0  0  0
   -2.5565   -0.0944    0.2265 C   0  0  0  0  0  0  0  0  0  0  0  0
    0.1899   -0.1816    0.2541 C   0  0  0  0  0  0  0  0  0  0  0  0
   -3.8361    0.7330    0.2015 C   0  0  0  0  0  0  0  0  0  0  0  0
   -2.5017   -1.0697   -0.9431 C   0  0  0  0  0  0  0  0  0  0  0  0
    3.1648    0.1676   -1.5068 H   0  0  0  0  0  0  0  0  0  0  0  0
    1.0325   -1.1078   -1.4546 H   0  0  0  0  0  0  0  0  0  0  0  0
    0.7726    0.6110   -1.6780 H   0  0  0  0  0  0  0  0  0  0  0  0
    3.7395    1.7601    0.2882 H   0  0  0  0  0  0  0  0  0  0  0  0
    2.1724    1.5350    1.0703 H   0  0  0  0  0  0  0  0  0  0  0  0
    2.2679    2.3022   -0.5267 H   0  0  0  0  0  0  0  0  0  0  0  0
    2.7483   -0.8838    1.3532 H   0  0  0  0  0  0  0  0  0  0  0  0
    2.9443   -1.9367   -0.0668 H   0  0  0  0  0  0  0  0  0  0  0  0
    4.2317   -0.8268    0.4133 H   0  0  0  0  0  0  0  0  0  0  0  0
   -2.5283   -0.6596    1.1649 H   0  0  0  0  0  0  0  0  0  0  0  0
   -4.7138    0.0797    0.2599 H   0  0  0  0  0  0  0  0  0  0  0  0
   -3.8849    1.4196    1.0541 H   0  0  0  0  0  0  0  0  0  0  0  0
   -3.9246    1.3204   -0.7196 H   0  0  0  0  0  0  0  0  0  0  0  0
   -3.3985   -1.7003   -0.9491 H   0  0  0  0  0  0  0  0  0  0  0  0
   -1.6453   -1.7485   -0.8809 H   0  0  0  0  0  0  0  0  0  0  0  0
   -2.4641   -0.5513   -1.9082 H   0  0  0  0  0  0  0  0  0  0  0  0
  1  7  1  0  0  0  0
  1  8  1  0  0  0  0
  2  8  2  0  0  0  0
  3  4  1  0  0  0  0
  3  5  1  0  0  0  0
  3  6  1  0  0  0  0
  3 11  1  0  0  0  0
  4  8  1  0  0  0  0
  4 12  1  0  0  0  0
  4 13  1  0  0  0  0
  5 14  1  0  0  0  0
  5 15  1  0  0  0  0
  5 16  1  0  0  0  0
  6 17  1  0  0  0  0
  6 18  1  0  0  0  0
  6 19  1  0  0  0  0
  7  9  1  0  0  0  0
  7 10  1  0  0  0  0
  7 20  1  0  0  0  0
  9 21  1  0  0  0  0
  9 22  1  0  0  0  0
  9 23  1  0  0  0  0
 10 24  1  0  0  0  0
 10 25  1  0  0  0  0
 10 26  1  0  0  0  0
M  END
> <PUBCHEM_COMPOUND_CID>
118641

> <PUBCHEM_CONFORMER_RMSD>
0.6

> <PUBCHEM_CONFORMER_DIVERSEORDER>
1
24
23
16
25
26
2
13
3
22
11
4
12
6
8
5
21
9
19
20
18
14
15
7
10
17

> <PUBCHEM_MMFF94_PARTIAL_CHARGES>
5
1 -0.37
2 -0.57
4 0.06
7 0.23
8 0.65

> <PUBCHEM_EFFECTIVE_ROTOR_COUNT>
4

> <PUBCHEM_PHARMACOPHORE_FEATURES>
2
3 3 5 6 hydrophobe
3 7 9 10 hydrophobe

> <PUBCHEM_HEAVY_ATOM_COUNT>
10

> <PUBCHEM_ATOM_DEF_STEREO_COUNT>
0

> <PUBCHEM_ATOM_UDEF_STEREO_COUNT>
0

> <PUBCHEM_BOND_DEF_STEREO_COUNT>
0

> <PUBCHEM_BOND_UDEF_STEREO_COUNT>
0

> <PUBCHEM_ISOTOPIC_ATOM_COUNT>
0

> <PUBCHEM_COMPONENT_COUNT>
1

> <PUBCHEM_CACTVS_TAUTO_COUNT>
1

> <PUBCHEM_CONFORMER_ID>
0001CF7100000001

> <PUBCHEM_MMFF94_ENERGY>
13.4193

> <PUBCHEM_FEATURE_SELFOVERLAP>
10.149

> <PUBCHEM_SHAPE_FINGERPRINT>
10219947 1 16588029004244773783
11062470 55 17917996061774146885
12897270 3 17917437531162809685
12932764 1 18334857207852828044
14325111 11 18335142015739971409
15775835 57 18335425668222994197
18186145 218 18187364341531176852
20201158 50 16415483722698344359
20279233 1 15339115736555220767
20281407 28 15841554080574404015
21119208 17 18201443549275495541
23235685 24 17168148935719816001
23235687 12 18059861648917193932
23402539 116 18272360949750203500
29004967 10 14836408029520108102
3248919 1 17060346205719966165
5084963 1 17749393637414480516
528716 315 18130514148957581245
57812782 119 18333447629851459748
9939556 21 18343582945094777517

> <PUBCHEM_SHAPE_MULTIPOLES>
203.78
6.08
1.31
0.96
1.72
0.2
-0.01
0.49
0.11
-0.21
0.01
-0.09
-0.21
-0.44

> <PUBCHEM_SHAPE_SELFOVERLAP>
361.138

> <PUBCHEM_SHAPE_VOLUME>
134.6

> <PUBCHEM_COORDINATE_TYPE>
2
5
10

$$$$
