118823
  -OEChem-11232109483D

 32 31  0     0  0  0  0  0  0999 V2000
   -0.1282   -0.5467   -0.4251 N   0  0  0  0  0  0  0  0  0  0  0  0
    3.6396    0.2434   -0.3561 C   0  0  0  0  0  0  0  0  0  0  0  0
    2.2281   -0.0802   -0.8851 C   0  0  0  0  0  0  0  0  0  0  0  0
   -3.4174    0.2174    0.3814 C   0  0  0  0  0  0  0  0  0  0  0  0
    1.1710   -0.2996    0.1938 C   0  0  0  0  0  0  0  0  0  0  0  0
   -2.4891   -0.9398   -0.0095 C   0  0  0  0  0  0  0  0  0  0  0  0
    3.5879    1.5006    0.5163 C   0  0  0  0  0  0  0  0  0  0  0  0
    4.2436   -0.9128    0.4419 C   0  0  0  0  0  0  0  0  0  0  0  0
   -2.9042    1.5281   -0.2164 C   0  0  0  0  0  0  0  0  0  0  0  0
   -4.8549   -0.0371   -0.0784 C   0  0  0  0  0  0  0  0  0  0  0  0
   -1.0763   -0.6732    0.4371 C   0  0  0  0  0  0  0  0  0  0  0  0
    4.2855    0.4426   -1.2202 H   0  0  0  0  0  0  0  0  0  0  0  0
    2.2807   -0.9717   -1.5236 H   0  0  0  0  0  0  0  0  0  0  0  0
    1.9006    0.7370   -1.5416 H   0  0  0  0  0  0  0  0  0  0  0  0
   -3.4184    0.3208    1.4741 H   0  0  0  0  0  0  0  0  0  0  0  0
    1.4489   -1.1572    0.8172 H   0  0  0  0  0  0  0  0  0  0  0  0
    1.0989    0.5845    0.8367 H   0  0  0  0  0  0  0  0  0  0  0  0
   -2.8200   -1.8641    0.4768 H   0  0  0  0  0  0  0  0  0  0  0  0
   -2.5045   -1.1035   -1.0933 H   0  0  0  0  0  0  0  0  0  0  0  0
    3.0786    2.3203   -0.0011 H   0  0  0  0  0  0  0  0  0  0  0  0
    4.6048    1.8387    0.7459 H   0  0  0  0  0  0  0  0  0  0  0  0
    3.0855    1.3262    1.4730 H   0  0  0  0  0  0  0  0  0  0  0  0
    3.6925   -1.1075    1.3673 H   0  0  0  0  0  0  0  0  0  0  0  0
    5.2798   -0.6869    0.7164 H   0  0  0  0  0  0  0  0  0  0  0  0
    4.2491   -1.8324   -0.1525 H   0  0  0  0  0  0  0  0  0  0  0  0
   -3.5951    2.3490    0.0058 H   0  0  0  0  0  0  0  0  0  0  0  0
   -1.9309    1.8103    0.1975 H   0  0  0  0  0  0  0  0  0  0  0  0
   -2.8065    1.4591   -1.3053 H   0  0  0  0  0  0  0  0  0  0  0  0
   -4.9134   -0.1264   -1.1685 H   0  0  0  0  0  0  0  0  0  0  0  0
   -5.2409   -0.9639    0.3589 H   0  0  0  0  0  0  0  0  0  0  0  0
   -5.5142    0.7804    0.2319 H   0  0  0  0  0  0  0  0  0  0  0  0
   -0.9045   -0.5962    1.5260 H   0  0  0  0  0  0  0  0  0  0  0  0
  1  5  1  0  0  0  0
  1 11  2  0  0  0  0
  2  3  1  0  0  0  0
  2  7  1  0  0  0  0
  2  8  1  0  0  0  0
  2 12  1  0  0  0  0
  3  5  1  0  0  0  0
  3 13  1  0  0  0  0
  3 14  1  0  0  0  0
  4  6  1  0  0  0  0
  4  9  1  0  0  0  0
  4 10  1  0  0  0  0
  4 15  1  0  0  0  0
  5 16  1  0  0  0  0
  5 17  1  0  0  0  0
  6 11  1  0  0  0  0
  6 18  1  0  0  0  0
  6 19  1  0  0  0  0
  7 20  1  0  0  0  0
  7 21  1  0  0  0  0
  7 22  1  0  0  0  0
  8 23  1  0  0  0  0
  8 24  1  0  0  0  0
  8 25  1  0  0  0  0
  9 26  1  0  0  0  0
  9 27  1  0  0  0  0
  9 28  1  0  0  0  0
 10 29  1  0  0  0  0
 10 30  1  0  0  0  0
 10 31  1  0  0  0  0
 11 32  1  0  0  0  0
M  END
> <PUBCHEM_COMPOUND_CID>
118823

> <PUBCHEM_CONFORMER_RMSD>
0.6

> <PUBCHEM_CONFORMER_DIVERSEORDER>
1
12
19
3
9
16
6
17
7
14
13
2
4
8
15
5
18
11
10

> <PUBCHEM_MMFF94_PARTIAL_CHARGES>
5
1 -0.7
11 0.33
32 0.06
5 0.25
6 0.06

> <PUBCHEM_EFFECTIVE_ROTOR_COUNT>
5

> <PUBCHEM_PHARMACOPHORE_FEATURES>
3
1 1 acceptor
3 2 7 8 hydrophobe
3 4 9 10 hydrophobe

> <PUBCHEM_HEAVY_ATOM_COUNT>
11

> <PUBCHEM_ATOM_DEF_STEREO_COUNT>
0

> <PUBCHEM_ATOM_UDEF_STEREO_COUNT>
0

> <PUBCHEM_BOND_DEF_STEREO_COUNT>
0

> <PUBCHEM_BOND_UDEF_STEREO_COUNT>
0

> <PUBCHEM_ISOTOPIC_ATOM_COUNT>
0

> <PUBCHEM_COMPONENT_COUNT>
1

> <PUBCHEM_CACTVS_TAUTO_COUNT>
1

> <PUBCHEM_CONFORMER_ID>
0001D02700000001

> <PUBCHEM_MMFF94_ENERGY>
12.8438

> <PUBCHEM_FEATURE_SELFOVERLAP>
15.223

> <PUBCHEM_SHAPE_FINGERPRINT>
11062470 55 17775289365109862918
114248 4 15913324702193637263
13081056 2 18412827988341634877
14123238 8 17846779619980347239
14252887 29 15068334614964523792
177051 138 8286207145137210744
17802600 8 18409164411508834741
17834076 25 15841551877388127746
18186145 218 18060432312916747734
190213 19 17313106358123632355
20279233 1 17918001580628060270
20281407 28 11241974784474787717
20645477 56 18412550907490845591
20645477 70 17274834510603953350
20724930 37 18201999915487280510
212847 35 18335141990450358492
21293036 1 16845574218700110423
21652331 79 18410291432286187945
23048698 100 16370732542849015500
23402539 116 18410287021971616015
265663 24 18411979156875400975
351380 180 18411978057295077945
42 15 18040435473372642682
53428517 58 16558751225768575143
548570 60 18201718465927056312
58051976 100 18343584061771035238

> <PUBCHEM_SHAPE_MULTIPOLES>
221.39
10.05
1.28
0.79
1.2
0.44
0.04
1.11
-0.57
-0.21
-0.11
-0.3
0.01
0.16

> <PUBCHEM_SHAPE_SELFOVERLAP>
399.707

> <PUBCHEM_SHAPE_VOLUME>
142.8

> <PUBCHEM_COORDINATE_TYPE>
2
5
10

$$$$
