11969488
  -OEChem-11232109493D

 31 31  0     1  0  0  0  0  0999 V2000
    1.4702   -0.6537   -0.1159 O   0  0  0  0  0  0  0  0  0  0  0  0
    2.9948   -2.2972    0.1012 O   0  0  0  0  0  0  0  0  0  0  0  0
    1.1861    0.7226   -0.4552 C   0  0  2  0  0  0  0  0  0  0  0  0
    2.0542    1.7039    0.3162 C   0  0  0  0  0  0  0  0  0  0  0  0
   -0.2931    0.9642   -0.1868 C   0  0  0  0  0  0  0  0  0  0  0  0
    3.5049    1.3183    0.1124 C   0  0  0  0  0  0  0  0  0  0  0  0
    3.7296   -0.0878    0.6278 C   0  0  0  0  0  0  0  0  0  0  0  0
   -1.1709    0.0059   -0.9920 C   0  0  0  0  0  0  0  0  0  0  0  0
    2.7222   -1.0995    0.1447 C   0  0  0  0  0  0  0  0  0  0  0  0
   -2.6284    0.2652   -0.7446 C   0  0  0  0  0  0  0  0  0  0  0  0
   -3.4688   -0.6407   -0.2235 C   0  0  0  0  0  0  0  0  0  0  0  0
   -4.9278   -0.3855    0.0135 C   0  0  0  0  0  0  0  0  0  0  0  0
   -5.1730    0.1842    1.4022 C   0  0  0  0  0  0  0  0  0  0  0  0
    1.3763    0.8279   -1.5311 H   0  0  0  0  0  0  0  0  0  0  0  0
    1.8169    1.6691    1.3868 H   0  0  0  0  0  0  0  0  0  0  0  0
    1.8796    2.7285   -0.0301 H   0  0  0  0  0  0  0  0  0  0  0  0
   -0.5018    0.8182    0.8814 H   0  0  0  0  0  0  0  0  0  0  0  0
   -0.5501    2.0028   -0.4304 H   0  0  0  0  0  0  0  0  0  0  0  0
    4.1621    2.0194    0.6383 H   0  0  0  0  0  0  0  0  0  0  0  0
    3.7592    1.3721   -0.9533 H   0  0  0  0  0  0  0  0  0  0  0  0
    3.6938   -0.0950    1.7234 H   0  0  0  0  0  0  0  0  0  0  0  0
    4.7268   -0.4224    0.3207 H   0  0  0  0  0  0  0  0  0  0  0  0
   -0.9753    0.1356   -2.0633 H   0  0  0  0  0  0  0  0  0  0  0  0
   -0.9262   -1.0348   -0.7492 H   0  0  0  0  0  0  0  0  0  0  0  0
   -3.0091    1.2435   -1.0277 H   0  0  0  0  0  0  0  0  0  0  0  0
   -3.0917   -1.6183    0.0660 H   0  0  0  0  0  0  0  0  0  0  0  0
   -5.4799   -1.3240   -0.1100 H   0  0  0  0  0  0  0  0  0  0  0  0
   -5.3202    0.3095   -0.7384 H   0  0  0  0  0  0  0  0  0  0  0  0
   -6.2443    0.3458    1.5597 H   0  0  0  0  0  0  0  0  0  0  0  0
   -4.6641    1.1450    1.5344 H   0  0  0  0  0  0  0  0  0  0  0  0
   -4.8168   -0.5004    2.1795 H   0  0  0  0  0  0  0  0  0  0  0  0
  1  3  1  0  0  0  0
  1  9  1  0  0  0  0
  2  9  2  0  0  0  0
  3  4  1  0  0  0  0
  3  5  1  0  0  0  0
  3 14  1  0  0  0  0
  4  6  1  0  0  0  0
  4 15  1  0  0  0  0
  4 16  1  0  0  0  0
  5  8  1  0  0  0  0
  5 17  1  0  0  0  0
  5 18  1  0  0  0  0
  6  7  1  0  0  0  0
  6 19  1  0  0  0  0
  6 20  1  0  0  0  0
  7  9  1  0  0  0  0
  7 21  1  0  0  0  0
  7 22  1  0  0  0  0
  8 10  1  0  0  0  0
  8 23  1  0  0  0  0
  8 24  1  0  0  0  0
 10 11  2  0  0  0  0
 10 25  1  0  0  0  0
 11 12  1  0  0  0  0
 11 26  1  0  0  0  0
 12 13  1  0  0  0  0
 12 27  1  0  0  0  0
 12 28  1  0  0  0  0
 13 29  1  0  0  0  0
 13 30  1  0  0  0  0
 13 31  1  0  0  0  0
M  END
> <PUBCHEM_COMPOUND_CID>
11969488

> <PUBCHEM_CONFORMER_RMSD>
0.6

> <PUBCHEM_CONFORMER_DIVERSEORDER>
1
92
67
17
20
99
101
93
44
77
51
85
18
4
98
86
103
19
97
23
14
88
105
9
96
39
21
26
2
94
30
89
40
107
102
42
79
100
78
43
45
95
32
106
49
80
24
15
104
5
37
90
64
72
71
61
60
81
84
34
22
66
108
56
6
35
63
16
87
62
41
13
75
48
8
53
59
31
25
57
12
76
83
65
10
3
7
50
27
11
73
33
54
82
68
58
70
29
69
74
28
38
52
46
47
36
55
91

> <PUBCHEM_MMFF94_PARTIAL_CHARGES>
11
1 -0.43
10 -0.29
11 -0.29
12 0.14
2 -0.57
25 0.15
26 0.15
3 0.28
7 0.06
8 0.14
9 0.66

> <PUBCHEM_EFFECTIVE_ROTOR_COUNT>
5

> <PUBCHEM_PHARMACOPHORE_FEATURES>
3
1 13 hydrophobe
1 2 acceptor
6 1 3 4 6 7 9 rings

> <PUBCHEM_HEAVY_ATOM_COUNT>
13

> <PUBCHEM_ATOM_DEF_STEREO_COUNT>
0

> <PUBCHEM_ATOM_UDEF_STEREO_COUNT>
1

> <PUBCHEM_BOND_DEF_STEREO_COUNT>
1

> <PUBCHEM_BOND_UDEF_STEREO_COUNT>
0

> <PUBCHEM_ISOTOPIC_ATOM_COUNT>
0

> <PUBCHEM_COMPONENT_COUNT>
1

> <PUBCHEM_CACTVS_TAUTO_COUNT>
1

> <PUBCHEM_CONFORMER_ID>
00B6A3D000000001

> <PUBCHEM_MMFF94_ENERGY>
11.3737

> <PUBCHEM_FEATURE_SELFOVERLAP>
15.223

> <PUBCHEM_SHAPE_FINGERPRINT>
10354089 29 18202288030277683089
10912923 1 17917991707199522199
11543360 7 8286196133294828841
12251169 10 18272366490495262285
12616999 72 17895202112315503022
13675066 3 18186239533221364485
14252887 29 18113899368351813825
14445660 50 18201438129380189359
15375462 189 18201710777824579676
17834072 33 18200587120629241567
17834074 16 18113336418746649659
20233049 118 16415483778432829033
20432913 95 18261112989327905203
20645477 70 18337092493855123991
20724930 31 17385444336490923341
20767249 442 14836408025509873445
20871998 22 18270398266166509230
212847 35 12751243614161298218
22485316 2 18408880759289283463
231179 274 12751236999621616071
23402539 116 11963376462713874935
23557571 272 17023168410518305213
33824 294 18334007302871746810
42 15 18408604764617021821
43658 37 7925041751773648398
5352402 22 18187373125266993195
548570 60 12607404390740561683

> <PUBCHEM_SHAPE_MULTIPOLES>
255.8
10.14
1.56
0.95
11.15
0.42
0.12
1.11
3.29
-2.1
0.1
0.87
-0.08
-0.17

> <PUBCHEM_SHAPE_SELFOVERLAP>
495.188

> <PUBCHEM_SHAPE_VOLUME>
154.7

> <PUBCHEM_COORDINATE_TYPE>
2
5
10

$$$$
