11967982
  -OEChem-11232109003D

 29 30  0     1  0  0  0  0  0999 V2000
   -1.3440   -2.0421    0.2142 O   0  0  0  0  0  0  0  0  0  0  0  0
    0.6878    0.2472   -0.7014 C   0  0  2  0  0  0  0  0  0  0  0  0
   -0.3972    1.2994   -0.3216 C   0  0  2  0  0  0  0  0  0  0  0  0
    1.0260    1.6746   -0.4504 C   0  0  0  0  0  0  0  0  0  0  0  0
   -1.3111    0.4013    0.4466 C   0  0  2  0  0  0  0  0  0  0  0  0
   -0.2022   -0.6655   -1.4748 C   0  0  0  0  0  0  0  0  0  0  0  0
   -1.4138   -0.8241   -0.5126 C   0  0  1  0  0  0  0  0  0  0  0  0
    1.4991   -0.5620    0.2879 C   0  0  0  0  0  0  0  0  0  0  0  0
   -2.6710    1.0303    0.7157 C   0  0  0  0  0  0  0  0  0  0  0  0
    3.0007   -0.3555    0.0670 C   0  0  0  0  0  0  0  0  0  0  0  0
    1.1255   -0.2036    1.7295 C   0  0  0  0  0  0  0  0  0  0  0  0
   -0.9826    1.7835   -1.1077 H   0  0  0  0  0  0  0  0  0  0  0  0
    1.5261    2.0440    0.4353 H   0  0  0  0  0  0  0  0  0  0  0  0
    1.3115    2.2671   -1.3171 H   0  0  0  0  0  0  0  0  0  0  0  0
   -1.0213    0.1208    1.4464 H   0  0  0  0  0  0  0  0  0  0  0  0
   -0.5132   -0.1869   -2.4122 H   0  0  0  0  0  0  0  0  0  0  0  0
    0.2596   -1.6245   -1.7323 H   0  0  0  0  0  0  0  0  0  0  0  0
   -2.3476   -0.8302   -1.0860 H   0  0  0  0  0  0  0  0  0  0  0  0
    1.3282   -1.6390    0.1635 H   0  0  0  0  0  0  0  0  0  0  0  0
   -2.5670    1.9176    1.3498 H   0  0  0  0  0  0  0  0  0  0  0  0
   -3.1607    1.3468   -0.2119 H   0  0  0  0  0  0  0  0  0  0  0  0
   -3.3358    0.3222    1.2217 H   0  0  0  0  0  0  0  0  0  0  0  0
    3.3378    0.6516    0.3321 H   0  0  0  0  0  0  0  0  0  0  0  0
    3.5771   -1.0609    0.6764 H   0  0  0  0  0  0  0  0  0  0  0  0
    3.2646   -0.5318   -0.9816 H   0  0  0  0  0  0  0  0  0  0  0  0
    0.8485    0.8270    1.9591 H   0  0  0  0  0  0  0  0  0  0  0  0
    1.9983   -0.3925    2.3717 H   0  0  0  0  0  0  0  0  0  0  0  0
    0.3909   -0.9104    2.1314 H   0  0  0  0  0  0  0  0  0  0  0  0
   -1.3391   -2.7677   -0.4330 H   0  0  0  0  0  0  0  0  0  0  0  0
  1  7  1  0  0  0  0
  1 29  1  0  0  0  0
  2  3  1  0  0  0  0
  2  4  1  0  0  0  0
  2  6  1  0  0  0  0
  2  8  1  0  0  0  0
  3  4  1  0  0  0  0
  3  5  1  0  0  0  0
  3 12  1  0  0  0  0
  4 13  1  0  0  0  0
  4 14  1  0  0  0  0
  5  7  1  0  0  0  0
  5  9  1  0  0  0  0
  5 15  1  0  0  0  0
  6  7  1  0  0  0  0
  6 16  1  0  0  0  0
  6 17  1  0  0  0  0
  7 18  1  0  0  0  0
  8 10  1  0  0  0  0
  8 11  1  0  0  0  0
  8 19  1  0  0  0  0
  9 20  1  0  0  0  0
  9 21  1  0  0  0  0
  9 22  1  0  0  0  0
 10 23  1  0  0  0  0
 10 24  1  0  0  0  0
 10 25  1  0  0  0  0
 11 26  1  0  0  0  0
 11 27  1  0  0  0  0
 11 28  1  0  0  0  0
M  END
> <PUBCHEM_COMPOUND_CID>
11967982

> <PUBCHEM_CONFORMER_RMSD>
0.4

> <PUBCHEM_CONFORMER_DIVERSEORDER>
2
3
1

> <PUBCHEM_MMFF94_PARTIAL_CHARGES>
12
1 -0.68
12 0.1
13 0.1
14 0.1
2 -0.19
29 0.4
3 -0.19
4 -0.2
5 0.09
6 0.09
7 0.28
8 0.09

> <PUBCHEM_EFFECTIVE_ROTOR_COUNT>
1.8

> <PUBCHEM_PHARMACOPHORE_FEATURES>
4
1 1 acceptor
1 1 donor
3 8 10 11 hydrophobe
6 2 3 4 5 6 7 rings

> <PUBCHEM_HEAVY_ATOM_COUNT>
11

> <PUBCHEM_ATOM_DEF_STEREO_COUNT>
3

> <PUBCHEM_ATOM_UDEF_STEREO_COUNT>
1

> <PUBCHEM_BOND_DEF_STEREO_COUNT>
0

> <PUBCHEM_BOND_UDEF_STEREO_COUNT>
0

> <PUBCHEM_ISOTOPIC_ATOM_COUNT>
0

> <PUBCHEM_COMPONENT_COUNT>
1

> <PUBCHEM_CACTVS_TAUTO_COUNT>
1

> <PUBCHEM_CONFORMER_ID>
00B69DEE00000002

> <PUBCHEM_MMFF94_ENERGY>
94.9633

> <PUBCHEM_FEATURE_SELFOVERLAP>
20.297

> <PUBCHEM_SHAPE_FINGERPRINT>
10219947 1 18267029349416860985
12423570 1 13325713030415905960
13024252 1 16081652162762714702
137420 1 8206468203890741196
14993402 34 18337107873964023653
15557651 10 17701240431012787208
16945 1 18336551533944184772
18185500 45 18114172051546306898
20653091 64 18115868688113583145
207724 885 18409735019246110676
21040471 1 18059590048328844005
21922407 69 18118967137787551435
23235685 24 18130507414259223105
29004967 10 15502663667386481372
369184 2 18041548153533496528
5084963 1 18130219368109007213
68250623 7 18192732243403189900

> <PUBCHEM_SHAPE_MULTIPOLES>
220.51
3.07
1.57
1.27
0.45
0.11
-0.19
-0.09
-0.76
-0.5
0.15
0.16
0.1
-0.31

> <PUBCHEM_SHAPE_SELFOVERLAP>
455.502

> <PUBCHEM_SHAPE_VOLUME>
131.7

> <PUBCHEM_COORDINATE_TYPE>
2
5
10

$$$$
