11962784
  -OEChem-11232109053D

 30 30  0     1  0  0  0  0  0999 V2000
    2.8616   -1.9544   -0.3196 O   0  0  0  0  0  0  0  0  0  0  0  0
   -1.6949   -0.8710    0.2438 C   0  0  0  0  0  0  0  0  0  0  0  0
   -1.5885    0.2416   -0.7473 C   0  0  1  0  0  0  0  0  0  0  0  0
   -2.9256   -0.3495   -0.4384 C   0  0  0  0  0  0  0  0  0  0  0  0
   -1.3002    1.6370   -0.2844 C   0  0  0  0  0  0  0  0  0  0  0  0
   -1.5339   -0.5812    1.6963 C   0  0  0  0  0  0  0  0  0  0  0  0
   -1.1850   -2.2069   -0.1726 C   0  0  0  0  0  0  0  0  0  0  0  0
    0.1239    2.0684   -0.6419 C   0  0  0  0  0  0  0  0  0  0  0  0
    1.1658    1.1575   -0.0322 C   0  0  0  0  0  0  0  0  0  0  0  0
    1.5986    1.5338    1.3617 C   0  0  0  0  0  0  0  0  0  0  0  0
    1.7211    0.0929   -0.6378 C   0  0  0  0  0  0  0  0  0  0  0  0
    2.7570   -0.7682   -0.0277 C   0  0  0  0  0  0  0  0  0  0  0  0
   -1.2157    0.0469   -1.7467 H   0  0  0  0  0  0  0  0  0  0  0  0
   -3.6325    0.2397    0.1345 H   0  0  0  0  0  0  0  0  0  0  0  0
   -3.3948   -0.9609   -1.2010 H   0  0  0  0  0  0  0  0  0  0  0  0
   -1.9912    2.3125   -0.8054 H   0  0  0  0  0  0  0  0  0  0  0  0
   -1.4805    1.8012    0.7811 H   0  0  0  0  0  0  0  0  0  0  0  0
   -1.8478   -1.4492    2.2883 H   0  0  0  0  0  0  0  0  0  0  0  0
   -0.4884   -0.3835    1.9469 H   0  0  0  0  0  0  0  0  0  0  0  0
   -2.1443    0.2564    2.0482 H   0  0  0  0  0  0  0  0  0  0  0  0
   -0.1365   -2.3303    0.1173 H   0  0  0  0  0  0  0  0  0  0  0  0
   -1.7628   -3.0045    0.3068 H   0  0  0  0  0  0  0  0  0  0  0  0
   -1.2487   -2.3602   -1.2558 H   0  0  0  0  0  0  0  0  0  0  0  0
    0.2389    2.0624   -1.7340 H   0  0  0  0  0  0  0  0  0  0  0  0
    0.2960    3.1047   -0.3274 H   0  0  0  0  0  0  0  0  0  0  0  0
    0.7574    1.9618    1.9188 H   0  0  0  0  0  0  0  0  0  0  0  0
    2.3891    2.2900    1.3196 H   0  0  0  0  0  0  0  0  0  0  0  0
    1.9455    0.6868    1.9599 H   0  0  0  0  0  0  0  0  0  0  0  0
    1.3867   -0.2066   -1.6266 H   0  0  0  0  0  0  0  0  0  0  0  0
    3.4178   -0.2973    0.7163 H   0  0  0  0  0  0  0  0  0  0  0  0
  1 12  2  0  0  0  0
  2  3  1  0  0  0  0
  2  4  1  0  0  0  0
  2  6  1  0  0  0  0
  2  7  1  0  0  0  0
  3  4  1  0  0  0  0
  3  5  1  0  0  0  0
  3 13  1  0  0  0  0
  4 14  1  0  0  0  0
  4 15  1  0  0  0  0
  5  8  1  0  0  0  0
  5 16  1  0  0  0  0
  5 17  1  0  0  0  0
  6 18  1  0  0  0  0
  6 19  1  0  0  0  0
  6 20  1  0  0  0  0
  7 21  1  0  0  0  0
  7 22  1  0  0  0  0
  7 23  1  0  0  0  0
  8  9  1  0  0  0  0
  8 24  1  0  0  0  0
  8 25  1  0  0  0  0
  9 10  1  0  0  0  0
  9 11  2  0  0  0  0
 10 26  1  0  0  0  0
 10 27  1  0  0  0  0
 10 28  1  0  0  0  0
 11 12  1  0  0  0  0
 11 29  1  0  0  0  0
 12 30  1  0  0  0  0
M  END
> <PUBCHEM_COMPOUND_CID>
11962784

> <PUBCHEM_CONFORMER_RMSD>
0.6

> <PUBCHEM_CONFORMER_DIVERSEORDER>
7
23
16
18
15
37
14
17
41
1
35
12
29
36
39
13
31
21
32
19
30
28
3
4
33
26
34
11
38
27
10
6
2
40
24
8
22
5
9
25
20

> <PUBCHEM_MMFF94_PARTIAL_CHARGES>
17
1 -0.57
10 0.14
11 -0.14
12 0.5
13 0.1
14 0.1
15 0.1
2 -0.19
29 0.15
3 -0.19
30 0.06
4 -0.2
5 0.09
6 0.09
7 0.09
8 0.14
9 -0.28

> <PUBCHEM_EFFECTIVE_ROTOR_COUNT>
4.6

> <PUBCHEM_PHARMACOPHORE_FEATURES>
3
1 1 acceptor
1 10 hydrophobe
3 2 6 7 hydrophobe

> <PUBCHEM_HEAVY_ATOM_COUNT>
12

> <PUBCHEM_ATOM_DEF_STEREO_COUNT>
0

> <PUBCHEM_ATOM_UDEF_STEREO_COUNT>
1

> <PUBCHEM_BOND_DEF_STEREO_COUNT>
1

> <PUBCHEM_BOND_UDEF_STEREO_COUNT>
0

> <PUBCHEM_ISOTOPIC_ATOM_COUNT>
0

> <PUBCHEM_COMPONENT_COUNT>
1

> <PUBCHEM_CACTVS_TAUTO_COUNT>
1

> <PUBCHEM_CONFORMER_ID>
00B689A000000007

> <PUBCHEM_MMFF94_ENERGY>
26.5923

> <PUBCHEM_FEATURE_SELFOVERLAP>
15.223

> <PUBCHEM_SHAPE_FINGERPRINT>
12524768 44 17971186165276345613
14817 1 11221354148444663160
15207287 21 17612558500356722961
16945 1 18194398033747721269
17990270 104 17972315384939654949
20201158 50 18335976579435656884
20645476 183 16443060565270929259
20645477 70 17251734059188955099
20711983 138 18333169461857174857
20711985 344 17823124653621788477
21922407 69 17335369476069690801
22713019 99 18339631244828802143
22713034 7 17542521868862582363
22721475 48 18410578362029145958
22802520 49 18187654599826888064
23552423 10 18047476909045476269
23559900 14 18052526674664780018
241688 4 18335698295672771489
2748010 2 18335408059126190549
369184 2 17417535851269672233
66348 1 18336261245536346574
81228 2 18187918461254267037

> <PUBCHEM_SHAPE_MULTIPOLES>
241.09
4.01
2.31
1.17
0.83
0.24
-0.55
1.66
0.16
0.65
0.23
-0.13
-0.15
0.55

> <PUBCHEM_SHAPE_SELFOVERLAP>
470.104

> <PUBCHEM_SHAPE_VOLUME>
147.9

> <PUBCHEM_COORDINATE_TYPE>
2
5
10

$$$$
