11989
  -OEChem-11232108443D

 18 19  0     0  0  0  0  0  0999 V2000
   -0.6590   -1.8150   -0.0353 S   0  0  0  0  0  0  0  0  0  0  0  0
   -3.3678   -0.4828    0.2523 S   0  0  0  0  0  0  0  0  0  0  0  0
   -0.9837    0.7321    0.2077 N   0  0  0  0  0  0  0  0  0  0  0  0
    0.7563   -0.8302   -0.0389 C   0  0  0  0  0  0  0  0  0  0  0  0
    0.3815    0.5094    0.1018 C   0  0  0  0  0  0  0  0  0  0  0  0
    2.1014   -1.2153   -0.1578 C   0  0  0  0  0  0  0  0  0  0  0  0
    1.3906    1.4966    0.1242 C   0  0  0  0  0  0  0  0  0  0  0  0
   -1.6219   -0.4133    0.1479 C   0  0  0  0  0  0  0  0  0  0  0  0
    3.0802   -0.2186   -0.1327 C   0  0  0  0  0  0  0  0  0  0  0  0
    2.7316    1.1203    0.0063 C   0  0  0  0  0  0  0  0  0  0  0  0
   -3.8091    1.1165   -0.4756 C   0  0  0  0  0  0  0  0  0  0  0  0
    2.3809   -2.2586   -0.2666 H   0  0  0  0  0  0  0  0  0  0  0  0
    1.1294    2.5456    0.2324 H   0  0  0  0  0  0  0  0  0  0  0  0
    4.1274   -0.4952   -0.2233 H   0  0  0  0  0  0  0  0  0  0  0  0
    3.5067    1.8816    0.0237 H   0  0  0  0  0  0  0  0  0  0  0  0
   -3.4470    1.9377    0.1490 H   0  0  0  0  0  0  0  0  0  0  0  0
   -4.8978    1.1898   -0.5452 H   0  0  0  0  0  0  0  0  0  0  0  0
   -3.3897    1.2101   -1.4812 H   0  0  0  0  0  0  0  0  0  0  0  0
  1  4  1  0  0  0  0
  1  8  1  0  0  0  0
  2  8  1  0  0  0  0
  2 11  1  0  0  0  0
  3  5  1  0  0  0  0
  3  8  2  0  0  0  0
  4  5  1  0  0  0  0
  4  6  2  0  0  0  0
  5  7  2  0  0  0  0
  6  9  1  0  0  0  0
  6 12  1  0  0  0  0
  7 10  1  0  0  0  0
  7 13  1  0  0  0  0
  9 10  2  0  0  0  0
  9 14  1  0  0  0  0
 10 15  1  0  0  0  0
 11 16  1  0  0  0  0
 11 17  1  0  0  0  0
 11 18  1  0  0  0  0
M  END
> <PUBCHEM_COMPOUND_CID>
11989

> <PUBCHEM_CONFORMER_RMSD>
0.4

> <PUBCHEM_CONFORMER_DIVERSEORDER>
1
5
2
3
4

> <PUBCHEM_MMFF94_PARTIAL_CHARGES>
15
1 -0.08
10 -0.15
11 0.23
12 0.15
13 0.15
14 0.15
15 0.15
2 -0.29
3 -0.57
4 0.04
5 0.23
6 -0.15
7 -0.15
8 0.43
9 -0.15

> <PUBCHEM_EFFECTIVE_ROTOR_COUNT>
1

> <PUBCHEM_PHARMACOPHORE_FEATURES>
4
1 11 hydrophobe
1 3 acceptor
5 1 3 4 5 8 rings
6 4 5 6 7 9 10 rings

> <PUBCHEM_HEAVY_ATOM_COUNT>
11

> <PUBCHEM_ATOM_DEF_STEREO_COUNT>
0

> <PUBCHEM_ATOM_UDEF_STEREO_COUNT>
0

> <PUBCHEM_BOND_DEF_STEREO_COUNT>
0

> <PUBCHEM_BOND_UDEF_STEREO_COUNT>
0

> <PUBCHEM_ISOTOPIC_ATOM_COUNT>
0

> <PUBCHEM_COMPONENT_COUNT>
1

> <PUBCHEM_CACTVS_TAUTO_COUNT>
1

> <PUBCHEM_CONFORMER_ID>
00002ED500000001

> <PUBCHEM_MMFF94_ENERGY>
17.4339

> <PUBCHEM_FEATURE_SELFOVERLAP>
20.368

> <PUBCHEM_SHAPE_FINGERPRINT>
10219947 1 18341617001135098119
10608611 8 18409445929450938577
11471102 20 18411696565227954653
12932764 1 17703225230179478633
13380535 76 18412543244937191854
13922767 16 18412537687159534912
14144814 61 18413393133165581097
14325111 11 18410575106470276761
14897335 6 18342171223751806290
14911166 2 18340776970288832702
14993402 34 18272374156843203934
15219456 202 18407761434797964265
15775835 57 18409452513382277599
16945 1 18341901804869738282
17844478 74 18114189669939803563
18186145 218 18343591724208422925
20201158 50 18412829070699806190
20645477 70 18341611465276091095
21040471 1 18268149953802769618
21501502 16 18267019655464664342
23235685 24 18341045302333210456
23402539 116 18272640242978408396
23402655 69 18269825455305929469
23552423 10 18191024719157030550
23559900 14 18129954506989450980
25 1 18336262332579602559
2748010 2 18125166180176754526
528886 8 18412541046045480474
53812653 166 18271522108625716048
63268167 104 18342181067732478987

> <PUBCHEM_SHAPE_MULTIPOLES>
229.09
5.64
1.7
0.66
3.26
0.18
-0.01
-1.36
-0.41
-0.12
-0.05
0.12
0
0.3

> <PUBCHEM_SHAPE_SELFOVERLAP>
464.405

> <PUBCHEM_SHAPE_VOLUME>
136.2

> <PUBCHEM_COORDINATE_TYPE>
2
5
10

$$$$
