119800
  -OEChem-11232109033D

 31 31  0     1  0  0  0  0  0999 V2000
   -1.5603    0.1125   -0.9354 O   0  0  0  0  0  0  0  0  0  0  0  0
   -2.3578    0.2372    1.2291 O   0  0  0  0  0  0  0  0  0  0  0  0
    0.9345    1.0752    0.3123 C   0  0  0  0  0  0  0  0  0  0  0  0
   -0.0023   -0.0837    0.8068 C   0  0  2  0  0  0  0  0  0  0  0  0
    1.2119    0.9068   -1.2003 C   0  0  0  0  0  0  0  0  0  0  0  0
    1.8097   -0.4581   -1.5529 C   0  0  0  0  0  0  0  0  0  0  0  0
    0.4626   -1.4515    0.3258 C   0  0  0  0  0  0  0  0  0  0  0  0
    0.3071    2.4646    0.5583 C   0  0  0  0  0  0  0  0  0  0  0  0
    2.2678    1.0415    1.1004 C   0  0  0  0  0  0  0  0  0  0  0  0
    1.2718   -1.5964   -0.7390 C   0  0  0  0  0  0  0  0  0  0  0  0
   -1.4462    0.1081    0.4233 C   0  0  0  0  0  0  0  0  0  0  0  0
   -0.0107   -2.6432    1.1118 C   0  0  0  0  0  0  0  0  0  0  0  0
   -2.8880    0.2872   -1.4403 C   0  0  0  0  0  0  0  0  0  0  0  0
    0.0286   -0.0809    1.9059 H   0  0  0  0  0  0  0  0  0  0  0  0
    1.9164    1.6818   -1.5330 H   0  0  0  0  0  0  0  0  0  0  0  0
    0.3153    1.0835   -1.8016 H   0  0  0  0  0  0  0  0  0  0  0  0
    2.8978   -0.4270   -1.4181 H   0  0  0  0  0  0  0  0  0  0  0  0
    1.6341   -0.6592   -2.6161 H   0  0  0  0  0  0  0  0  0  0  0  0
    0.0410    2.5937    1.6134 H   0  0  0  0  0  0  0  0  0  0  0  0
    1.0058    3.2653    0.2894 H   0  0  0  0  0  0  0  0  0  0  0  0
   -0.5987    2.6157   -0.0381 H   0  0  0  0  0  0  0  0  0  0  0  0
    2.9555    1.8157    0.7412 H   0  0  0  0  0  0  0  0  0  0  0  0
    2.0932    1.2248    2.1671 H   0  0  0  0  0  0  0  0  0  0  0  0
    2.7854    0.0811    1.0187 H   0  0  0  0  0  0  0  0  0  0  0  0
    1.5905   -2.5911   -1.0404 H   0  0  0  0  0  0  0  0  0  0  0  0
    0.3125   -2.5613    2.1545 H   0  0  0  0  0  0  0  0  0  0  0  0
    0.3850   -3.5840    0.7147 H   0  0  0  0  0  0  0  0  0  0  0  0
   -1.1032   -2.7076    1.0896 H   0  0  0  0  0  0  0  0  0  0  0  0
   -3.2903    1.2529   -1.1200 H   0  0  0  0  0  0  0  0  0  0  0  0
   -3.5315   -0.5314   -1.1043 H   0  0  0  0  0  0  0  0  0  0  0  0
   -2.8406    0.2713   -2.5324 H   0  0  0  0  0  0  0  0  0  0  0  0
  1 11  1  0  0  0  0
  1 13  1  0  0  0  0
  2 11  2  0  0  0  0
  3  4  1  0  0  0  0
  3  5  1  0  0  0  0
  3  8  1  0  0  0  0
  3  9  1  0  0  0  0
  4  7  1  0  0  0  0
  4 11  1  0  0  0  0
  4 14  1  0  0  0  0
  5  6  1  0  0  0  0
  5 15  1  0  0  0  0
  5 16  1  0  0  0  0
  6 10  1  0  0  0  0
  6 17  1  0  0  0  0
  6 18  1  0  0  0  0
  7 10  2  0  0  0  0
  7 12  1  0  0  0  0
  8 19  1  0  0  0  0
  8 20  1  0  0  0  0
  8 21  1  0  0  0  0
  9 22  1  0  0  0  0
  9 23  1  0  0  0  0
  9 24  1  0  0  0  0
 10 25  1  0  0  0  0
 12 26  1  0  0  0  0
 12 27  1  0  0  0  0
 12 28  1  0  0  0  0
 13 29  1  0  0  0  0
 13 30  1  0  0  0  0
 13 31  1  0  0  0  0
M  END
> <PUBCHEM_COMPOUND_CID>
119800

> <PUBCHEM_CONFORMER_RMSD>
0.6

> <PUBCHEM_CONFORMER_DIVERSEORDER>
2
7
4
8
1
3
9
5
6
10

> <PUBCHEM_MMFF94_PARTIAL_CHARGES>
10
1 -0.43
10 -0.29
11 0.66
12 0.14
13 0.28
2 -0.57
25 0.15
4 0.2
6 0.14
7 -0.28

> <PUBCHEM_EFFECTIVE_ROTOR_COUNT>
2.8

> <PUBCHEM_PHARMACOPHORE_FEATURES>
3
1 2 acceptor
3 3 8 9 hydrophobe
6 3 4 5 6 7 10 rings

> <PUBCHEM_HEAVY_ATOM_COUNT>
13

> <PUBCHEM_ATOM_DEF_STEREO_COUNT>
0

> <PUBCHEM_ATOM_UDEF_STEREO_COUNT>
1

> <PUBCHEM_BOND_DEF_STEREO_COUNT>
0

> <PUBCHEM_BOND_UDEF_STEREO_COUNT>
0

> <PUBCHEM_ISOTOPIC_ATOM_COUNT>
0

> <PUBCHEM_COMPONENT_COUNT>
1

> <PUBCHEM_CACTVS_TAUTO_COUNT>
1

> <PUBCHEM_CONFORMER_ID>
0001D3F800000002

> <PUBCHEM_MMFF94_ENERGY>
26.6795

> <PUBCHEM_FEATURE_SELFOVERLAP>
15.223

> <PUBCHEM_SHAPE_FINGERPRINT>
10353120 184 17980514206834894244
10702982 57 17690516026639556650
12138202 97 18122621918981224572
12326174 3 18270102544340087839
12423570 1 11461801467250664944
12725867 57 17245797408835249095
13024252 1 16025021060465545352
14128692 85 16056607538281382076
14817 1 13774337908075011486
15557651 10 17534369964952454409
15852999 172 18267287914884832526
15881359 60 17122258867882581182
16945 1 18059857225359231300
20511035 2 16951108686055278341
21930827 45 18048620370984109690
241688 4 18129957671345964008
2748010 2 17911540979574039460
44249140 249 17098656420805454627
5084963 1 18043526333470062179
528886 8 17825699701268977092
5337951 7 17840067139936581539
53812654 25 16969135943643791792

> <PUBCHEM_SHAPE_MULTIPOLES>
255.8
2.92
2.3
1.56
1.89
0.65
-0.35
-0.72
-0.71
-0.69
0.78
0.02
0.09
0.46

> <PUBCHEM_SHAPE_SELFOVERLAP>
512.239

> <PUBCHEM_SHAPE_VOLUME>
150.8

> <PUBCHEM_COORDINATE_TYPE>
2
5
10

$$$$
