119853
  -OEChem-11232109243D

 38 39  0     1  0  0  0  0  0999 V2000
    1.4011    0.2987    0.0478 O   0  0  0  0  0  0  0  0  0  0  0  0
    3.2697    1.4901   -0.5914 O   0  0  0  0  0  0  0  0  0  0  0  0
   -2.2759   -1.0746    0.1948 C   0  0  0  0  0  0  0  0  0  0  0  0
   -3.3879    0.0057   -0.0023 C   0  0  2  0  0  0  0  0  0  0  0  0
   -1.4493   -0.1900   -0.8002 C   0  0  1  0  0  0  0  0  0  0  0  0
   -2.8383    0.1079   -1.4618 C   0  0  0  0  0  0  0  0  0  0  0  0
   -3.1418    1.2801    0.8242 C   0  0  0  0  0  0  0  0  0  0  0  0
   -0.8637    1.0222   -0.1340 C   0  0  0  0  0  0  0  0  0  0  0  0
   -2.6365   -2.4506   -0.3456 C   0  0  0  0  0  0  0  0  0  0  0  0
   -1.7240   -1.2543    1.5948 C   0  0  0  0  0  0  0  0  0  0  0  0
   -1.7068    1.7196    0.6503 C   0  0  0  0  0  0  0  0  0  0  0  0
    0.5669    1.3661   -0.3727 C   0  0  0  0  0  0  0  0  0  0  0  0
    2.7497    0.4883   -0.1177 C   0  0  0  0  0  0  0  0  0  0  0  0
    3.5071   -0.7369    0.3634 C   0  0  0  0  0  0  0  0  0  0  0  0
    3.6621   -1.7291   -0.7829 C   0  0  0  0  0  0  0  0  0  0  0  0
    4.8675   -0.3432    0.9333 C   0  0  0  0  0  0  0  0  0  0  0  0
   -4.4198   -0.3508    0.0785 H   0  0  0  0  0  0  0  0  0  0  0  0
   -0.7393   -0.7227   -1.4405 H   0  0  0  0  0  0  0  0  0  0  0  0
   -2.9440    1.0883   -1.9412 H   0  0  0  0  0  0  0  0  0  0  0  0
   -3.2075   -0.6272   -2.1828 H   0  0  0  0  0  0  0  0  0  0  0  0
   -3.3557    1.1008    1.8832 H   0  0  0  0  0  0  0  0  0  0  0  0
   -3.8082    2.0796    0.4820 H   0  0  0  0  0  0  0  0  0  0  0  0
   -3.0482   -2.4576   -1.3574 H   0  0  0  0  0  0  0  0  0  0  0  0
   -1.7532   -3.1002   -0.3670 H   0  0  0  0  0  0  0  0  0  0  0  0
   -3.3831   -2.9339    0.2957 H   0  0  0  0  0  0  0  0  0  0  0  0
   -1.4237   -0.3395    2.1084 H   0  0  0  0  0  0  0  0  0  0  0  0
   -2.4661   -1.7371    2.2421 H   0  0  0  0  0  0  0  0  0  0  0  0
   -0.8375   -1.8998    1.5792 H   0  0  0  0  0  0  0  0  0  0  0  0
   -1.3756    2.6102    1.1742 H   0  0  0  0  0  0  0  0  0  0  0  0
    0.8417    2.2766    0.1736 H   0  0  0  0  0  0  0  0  0  0  0  0
    0.7174    1.5483   -1.4437 H   0  0  0  0  0  0  0  0  0  0  0  0
    2.9299   -1.1995    1.1737 H   0  0  0  0  0  0  0  0  0  0  0  0
    4.1826   -2.6331   -0.4506 H   0  0  0  0  0  0  0  0  0  0  0  0
    4.2288   -1.2926   -1.6130 H   0  0  0  0  0  0  0  0  0  0  0  0
    2.6834   -2.0262   -1.1752 H   0  0  0  0  0  0  0  0  0  0  0  0
    5.3869   -1.2171    1.3398 H   0  0  0  0  0  0  0  0  0  0  0  0
    4.7529    0.3895    1.7395 H   0  0  0  0  0  0  0  0  0  0  0  0
    5.5085    0.1070    0.1672 H   0  0  0  0  0  0  0  0  0  0  0  0
  1 12  1  0  0  0  0
  1 13  1  0  0  0  0
  2 13  2  0  0  0  0
  3  4  1  0  0  0  0
  3  5  1  0  0  0  0
  3  9  1  0  0  0  0
  3 10  1  0  0  0  0
  4  6  1  0  0  0  0
  4  7  1  0  0  0  0
  4 17  1  0  0  0  0
  5  6  1  0  0  0  0
  5  8  1  0  0  0  0
  5 18  1  0  0  0  0
  6 19  1  0  0  0  0
  6 20  1  0  0  0  0
  7 11  1  0  0  0  0
  7 21  1  0  0  0  0
  7 22  1  0  0  0  0
  8 11  2  0  0  0  0
  8 12  1  0  0  0  0
  9 23  1  0  0  0  0
  9 24  1  0  0  0  0
  9 25  1  0  0  0  0
 10 26  1  0  0  0  0
 10 27  1  0  0  0  0
 10 28  1  0  0  0  0
 11 29  1  0  0  0  0
 12 30  1  0  0  0  0
 12 31  1  0  0  0  0
 13 14  1  0  0  0  0
 14 15  1  0  0  0  0
 14 16  1  0  0  0  0
 14 32  1  0  0  0  0
 15 33  1  0  0  0  0
 15 34  1  0  0  0  0
 15 35  1  0  0  0  0
 16 36  1  0  0  0  0
 16 37  1  0  0  0  0
 16 38  1  0  0  0  0
M  END
> <PUBCHEM_COMPOUND_CID>
119853

> <PUBCHEM_CONFORMER_RMSD>
0.6

> <PUBCHEM_CONFORMER_DIVERSEORDER>
1
186
44
177
88
83
100
141
167
7
10
161
91
166
125
194
148
52
180
46
144
178
58
99
156
187
70
143
105
6
193
50
192
36
65
89
77
131
123
63
176
169
96
106
159
33
145
74
118
126
25
27
158
19
111
179
64
93
175
80
38
174
191
16
104
181
140
39
75
160
94
108
103
137
120
85
101
153
119
12
2
56
154
152
185
55
127
138
165
98
128
87
183
82
43
139
130
150
102
95
71
147
136
45
53
164
79
20
124
189
112
48
184
142
76
72
97
188
163
190
62
149
49
172
8
84
116
134
109
78
107
22
151
115
41
47
26
173
122
54
171
110
15
129
90
4
133
135
73
28
11
34
21
182
31
42
14
92
29
66
68
113
23
132
59
155
51
81
13
146
168
17
3
5
170
121
69
60
57
35
24
61
114
32
37
117
157
18
86
30
40
162
9
67

> <PUBCHEM_MMFF94_PARTIAL_CHARGES>
10
1 -0.43
11 -0.29
12 0.42
13 0.66
14 0.06
2 -0.57
29 0.15
5 0.12
7 0.14
8 -0.25

> <PUBCHEM_EFFECTIVE_ROTOR_COUNT>
4.6

> <PUBCHEM_PHARMACOPHORE_FEATURES>
4
1 2 acceptor
3 14 15 16 hydrophobe
3 3 9 10 hydrophobe
7 3 4 5 6 7 8 11 rings

> <PUBCHEM_HEAVY_ATOM_COUNT>
16

> <PUBCHEM_ATOM_DEF_STEREO_COUNT>
0

> <PUBCHEM_ATOM_UDEF_STEREO_COUNT>
2

> <PUBCHEM_BOND_DEF_STEREO_COUNT>
0

> <PUBCHEM_BOND_UDEF_STEREO_COUNT>
0

> <PUBCHEM_ISOTOPIC_ATOM_COUNT>
0

> <PUBCHEM_COMPONENT_COUNT>
1

> <PUBCHEM_CACTVS_TAUTO_COUNT>
1

> <PUBCHEM_CONFORMER_ID>
0001D42D00000001

> <PUBCHEM_MMFF94_ENERGY>
40.1779

> <PUBCHEM_FEATURE_SELFOVERLAP>
20.297

> <PUBCHEM_SHAPE_FINGERPRINT>
10366900 7 17917416649522232256
10616163 171 18341618148118603062
11132069 177 18410571756353548938
11315181 36 18410567397463027024
12553582 1 18115591431390758656
13024252 1 14779265319956997869
13296908 3 18260831531182877912
14289901 80 17489576875392337744
15375358 24 18341043043475935382
16945 1 18340196471399869325
18186145 218 17822013103506240296
19050596 39 18342455950393631344
19107657 162 18342177773851525238
19107657 46 18410855451928981270
19422 9 18409733988543740964
200 152 18271231798727074271
20279233 1 18201999924008539446
20281475 54 18410857663926458716
20442098 301 18413671309850261230
20645477 70 18408600375091938782
22646028 28 18409165528279115078
23402539 116 18131344212129212989
23503953 91 18411418397524060496
23559900 14 18341321301438219672
23728640 28 18272652329343680075
4921388 177 15719399468062309634
5281201 14 12540703578988603130
5706482 22 18201725003447256657
9709674 26 18271808995224491246

> <PUBCHEM_SHAPE_MULTIPOLES>
317.53
8.16
2.02
1.16
9.67
0.59
-0.1
1.65
-0.6
-0.74
0
-0.41
0.17
-0.18

> <PUBCHEM_SHAPE_SELFOVERLAP>
654.396

> <PUBCHEM_SHAPE_VOLUME>
185.6

> <PUBCHEM_COORDINATE_TYPE>
2
5
10

$$$$
