119922
  -OEChem-11232109493D

 37 36  0     0  0  0  0  0  0999 V2000
   -3.8607   -0.4008   -0.1682 O   0  0  0  0  0  0  0  0  0  0  0  0
   -3.0321    1.4835    0.8811 O   0  0  0  0  0  0  0  0  0  0  0  0
    5.6748   -0.2760   -0.2885 C   0  0  0  0  0  0  0  0  0  0  0  0
    4.2986    0.1427    0.2402 C   0  0  0  0  0  0  0  0  0  0  0  0
    6.6787   -0.5882    0.8242 C   0  0  0  0  0  0  0  0  0  0  0  0
    3.2938    0.4682   -0.8710 C   0  0  0  0  0  0  0  0  0  0  0  0
    8.0545   -0.9805    0.3075 C   0  0  0  0  0  0  0  0  0  0  0  0
    1.9512    0.8993   -0.3522 C   0  0  0  0  0  0  0  0  0  0  0  0
    0.8148    0.2247   -0.5828 C   0  0  0  0  0  0  0  0  0  0  0  0
   -6.1449   -1.1412   -0.2381 C   0  0  0  0  0  0  0  0  0  0  0  0
   -5.1847   -0.0761    0.2689 C   0  0  0  0  0  0  0  0  0  0  0  0
   -0.4744    0.6543   -0.0875 C   0  0  0  0  0  0  0  0  0  0  0  0
   -7.5769   -0.8538    0.1760 C   0  0  0  0  0  0  0  0  0  0  0  0
   -1.6038   -0.0270   -0.3237 C   0  0  0  0  0  0  0  0  0  0  0  0
   -2.8889    0.4709    0.2144 C   0  0  0  0  0  0  0  0  0  0  0  0
    6.0759    0.5263   -0.9201 H   0  0  0  0  0  0  0  0  0  0  0  0
    5.5617   -1.1584   -0.9303 H   0  0  0  0  0  0  0  0  0  0  0  0
    3.8959   -0.6622    0.8683 H   0  0  0  0  0  0  0  0  0  0  0  0
    4.4166    1.0190    0.8905 H   0  0  0  0  0  0  0  0  0  0  0  0
    6.7834    0.2880    1.4751 H   0  0  0  0  0  0  0  0  0  0  0  0
    6.2886   -1.4020    1.4470 H   0  0  0  0  0  0  0  0  0  0  0  0
    3.1897   -0.4051   -1.5269 H   0  0  0  0  0  0  0  0  0  0  0  0
    3.6932    1.2778   -1.4940 H   0  0  0  0  0  0  0  0  0  0  0  0
    8.4921   -0.1732   -0.2882 H   0  0  0  0  0  0  0  0  0  0  0  0
    7.9948   -1.8762   -0.3189 H   0  0  0  0  0  0  0  0  0  0  0  0
    8.7287   -1.1924    1.1430 H   0  0  0  0  0  0  0  0  0  0  0  0
    1.9300    1.8172    0.2311 H   0  0  0  0  0  0  0  0  0  0  0  0
    0.8442   -0.6900   -1.1695 H   0  0  0  0  0  0  0  0  0  0  0  0
   -5.8373   -2.1235    0.1399 H   0  0  0  0  0  0  0  0  0  0  0  0
   -6.0793   -1.2053   -1.3309 H   0  0  0  0  0  0  0  0  0  0  0  0
   -5.2054   -0.0402    1.3645 H   0  0  0  0  0  0  0  0  0  0  0  0
   -5.4656    0.9057   -0.1300 H   0  0  0  0  0  0  0  0  0  0  0  0
   -7.6714   -0.8234    1.2661 H   0  0  0  0  0  0  0  0  0  0  0  0
   -8.2448   -1.6347   -0.2011 H   0  0  0  0  0  0  0  0  0  0  0  0
   -7.9164    0.1063   -0.2255 H   0  0  0  0  0  0  0  0  0  0  0  0
   -0.4948    1.5708    0.4969 H   0  0  0  0  0  0  0  0  0  0  0  0
   -1.6085   -0.9442   -0.9041 H   0  0  0  0  0  0  0  0  0  0  0  0
  1 11  1  0  0  0  0
  1 15  1  0  0  0  0
  2 15  2  0  0  0  0
  3  4  1  0  0  0  0
  3  5  1  0  0  0  0
  3 16  1  0  0  0  0
  3 17  1  0  0  0  0
  4  6  1  0  0  0  0
  4 18  1  0  0  0  0
  4 19  1  0  0  0  0
  5  7  1  0  0  0  0
  5 20  1  0  0  0  0
  5 21  1  0  0  0  0
  6  8  1  0  0  0  0
  6 22  1  0  0  0  0
  6 23  1  0  0  0  0
  7 24  1  0  0  0  0
  7 25  1  0  0  0  0
  7 26  1  0  0  0  0
  8  9  2  3  0  0  0
  8 27  1  0  0  0  0
  9 12  1  0  0  0  0
  9 28  1  0  0  0  0
 10 11  1  0  0  0  0
 10 13  1  0  0  0  0
 10 29  1  0  0  0  0
 10 30  1  0  0  0  0
 11 31  1  0  0  0  0
 11 32  1  0  0  0  0
 12 14  2  3  0  0  0
 12 36  1  0  0  0  0
 13 33  1  0  0  0  0
 13 34  1  0  0  0  0
 13 35  1  0  0  0  0
 14 15  1  0  0  0  0
 14 37  1  0  0  0  0
M  END
> <PUBCHEM_COMPOUND_CID>
119922

> <PUBCHEM_CONFORMER_RMSD>
0.8

> <PUBCHEM_CONFORMER_DIVERSEORDER>
1
171
222
36
164
87
181
284
102
32
88
160
262
9
82
4
98
257
214
147
124
163
260
26
74
153
103
277
55
75
17
140
265
281
211
255
60
121
232
18
61
19
216
226
258
139
267
143
37
176
63
159
162
246
242
217
30
13
112
218
90
195
254
39
134
165
275
51
86
285
192
144
81
25
213
189
201
223
72
7
92
70
53
10
174
210
99
178
155
279
156
220
122
180
215
85
79
116
151
6
225
282
101
168
42
251
94
191
43
67
126
123
45
16
259
221
111
228
185
89
173
184
170
41
40
128
44
96
264
212
199
145
54
274
34
239
35
130
135
113
278
197
59
57
269
186
227
231
11
65
182
207
105
280
8
276
84
106
250
66
175
273
62
127
152
21
117
33
237
205
15
138
263
161
129
183
268
100
3
46
136
14
142
114
229
68
38
49
2
91
104
238
200
78
148
234
115
118
209
110
204
235
172
169
93
73
56
58
28
266
109
107
244
76
12
154
23
188
271
64
166
97
241
190
167
131
120
27
252
194
132
272
119
20
31
179
95
177
202
108
29
208
248
245
125
52
158
247
243
193
256
141
5
236
233
224
133
203
240
149
24
137
253
249
219
230
150
261
77
80
22
71
146
206
50
157
47
270
69
187
283
83
198
196
48

> <PUBCHEM_MMFF94_PARTIAL_CHARGES>
13
1 -0.43
11 0.28
12 -0.15
14 -0.14
15 0.71
2 -0.57
27 0.15
28 0.15
36 0.15
37 0.15
6 0.14
8 -0.29
9 -0.15

> <PUBCHEM_EFFECTIVE_ROTOR_COUNT>
9

> <PUBCHEM_PHARMACOPHORE_FEATURES>
4
1 13 hydrophobe
1 2 acceptor
1 7 hydrophobe
5 3 4 5 6 8 hydrophobe

> <PUBCHEM_HEAVY_ATOM_COUNT>
15

> <PUBCHEM_ATOM_DEF_STEREO_COUNT>
0

> <PUBCHEM_ATOM_UDEF_STEREO_COUNT>
0

> <PUBCHEM_BOND_DEF_STEREO_COUNT>
0

> <PUBCHEM_BOND_UDEF_STEREO_COUNT>
2

> <PUBCHEM_ISOTOPIC_ATOM_COUNT>
0

> <PUBCHEM_COMPONENT_COUNT>
1

> <PUBCHEM_CACTVS_TAUTO_COUNT>
1

> <PUBCHEM_CONFORMER_ID>
0001D47200000001

> <PUBCHEM_MMFF94_ENERGY>
6.829

> <PUBCHEM_FEATURE_SELFOVERLAP>
20.297

> <PUBCHEM_SHAPE_FINGERPRINT>
10 15 17203324537965360658
10354089 29 14692573226074081216
106641 1 16845288367157084338
10968037 39 8718828687200088007
11638347 137 17132119022648048814
12091667 2 17530685394825796581
12714333 28 9655574119906438532
13073987 5 16486705662066009410
13668630 136 17675924304621883138
13862211 1 18334014999173221988
13885169 127 18186798046215366213
13964095 4 13839981114638258087
14123256 10 12757149074224448718
1420 363 17703795824905726725
14251764 18 18411421722155658484
14251764 46 17346881151994961479
14729087 3 14045749201497601219
15048467 5 10375872974137894710
15183329 4 14273448163382907276
15242439 84 14201400503493630204
155225 1 10807934868882568386
15690457 1 18409726278930128254
15716309 27 18272930539986756478
17834072 8 14201398291632640060
18006028 8 17821728334363603500
20281389 69 12391517468891828122
20526848 3 11095881588409056562
20621476 8 17167858656825052973
20735858 18 17703791422738477590
20767249 213 12391513092103602790
21130983 4 12175622884451900490
21150785 3 13551189991519148914
22224240 67 15482670186754559741
23035841 295 18409731785742567147
23402539 116 18343582954376003645
23559900 14 17532377650241977701
246663 6 17894633651486731786
28498 318 17749103374702755567
33532 11 18335136454612495714
5104073 3 16915958274225415538
59682541 35 16917062300022179186
59682541 52 10881671362185379472
8209 1 15863788400316180550

> <PUBCHEM_SHAPE_MULTIPOLES>
296.95
23.17
1.08
0.81
6.81
0
0.02
-11.84
2.83
-0.26
0.08
0.26
0.07
-0.81

> <PUBCHEM_SHAPE_SELFOVERLAP>
550.907

> <PUBCHEM_SHAPE_VOLUME>
186.3

> <PUBCHEM_COORDINATE_TYPE>
2
5
10

$$$$
