120048
  -OEChem-11232109123D

 20 20  0     0  0  0  0  0  0999 V2000
    2.0640    1.1998   -0.2018 O   0  0  0  0  0  0  0  0  0  0  0  0
   -1.2686   -0.0066    0.7722 O   0  0  0  0  0  0  0  0  0  0  0  0
    0.2131   -2.3446    0.3751 O   0  0  0  0  0  0  0  0  0  0  0  0
   -1.8908   -0.0396   -1.4714 O   0  0  0  0  0  0  0  0  0  0  0  0
    0.7278    1.1750    0.1848 C   0  0  0  0  0  0  0  0  0  0  0  0
    0.0535    0.0251    0.3915 C   0  0  0  0  0  0  0  0  0  0  0  0
    0.7695   -1.2660    0.2024 C   0  0  0  0  0  0  0  0  0  0  0  0
    0.1316    2.5392    0.3406 C   0  0  0  0  0  0  0  0  0  0  0  0
    2.1854   -1.1954   -0.2055 C   0  0  0  0  0  0  0  0  0  0  0  0
    2.7242    0.0116   -0.3768 C   0  0  0  0  0  0  0  0  0  0  0  0
   -2.1552   -0.0328   -0.2760 C   0  0  0  0  0  0  0  0  0  0  0  0
   -3.5545   -0.0658    0.2648 C   0  0  0  0  0  0  0  0  0  0  0  0
    0.7166    3.1240    1.0581 H   0  0  0  0  0  0  0  0  0  0  0  0
   -0.9013    2.5153    0.6999 H   0  0  0  0  0  0  0  0  0  0  0  0
    0.1415    3.0645   -0.6198 H   0  0  0  0  0  0  0  0  0  0  0  0
    2.7442   -2.1100   -0.3546 H   0  0  0  0  0  0  0  0  0  0  0  0
    3.7499    0.1748   -0.6745 H   0  0  0  0  0  0  0  0  0  0  0  0
   -3.7357    0.8207    0.8780 H   0  0  0  0  0  0  0  0  0  0  0  0
   -3.7041   -0.9767    0.8497 H   0  0  0  0  0  0  0  0  0  0  0  0
   -4.2650   -0.0634   -0.5668 H   0  0  0  0  0  0  0  0  0  0  0  0
  1  5  1  0  0  0  0
  1 10  1  0  0  0  0
  2  6  1  0  0  0  0
  2 11  1  0  0  0  0
  3  7  2  0  0  0  0
  4 11  2  0  0  0  0
  5  6  2  0  0  0  0
  5  8  1  0  0  0  0
  6  7  1  0  0  0  0
  7  9  1  0  0  0  0
  8 13  1  0  0  0  0
  8 14  1  0  0  0  0
  8 15  1  0  0  0  0
  9 10  2  0  0  0  0
  9 16  1  0  0  0  0
 10 17  1  0  0  0  0
 11 12  1  0  0  0  0
 12 18  1  0  0  0  0
 12 19  1  0  0  0  0
 12 20  1  0  0  0  0
M  END
> <PUBCHEM_COMPOUND_CID>
120048

> <PUBCHEM_CONFORMER_RMSD>
0.6

> <PUBCHEM_CONFORMER_DIVERSEORDER>
2
8
5
4
3
6
1
7
9

> <PUBCHEM_MMFF94_PARTIAL_CHARGES>
14
1 -0.15
10 -0.07
11 0.66
12 0.06
16 0.15
17 0.15
2 -0.23
3 -0.57
4 -0.57
5 -0.06
6 0.09
7 0.54
8 0.14
9 -0.14

> <PUBCHEM_EFFECTIVE_ROTOR_COUNT>
2

> <PUBCHEM_PHARMACOPHORE_FEATURES>
4
1 1 acceptor
1 3 acceptor
1 4 acceptor
6 1 5 6 7 9 10 rings

> <PUBCHEM_HEAVY_ATOM_COUNT>
12

> <PUBCHEM_ATOM_DEF_STEREO_COUNT>
0

> <PUBCHEM_ATOM_UDEF_STEREO_COUNT>
0

> <PUBCHEM_BOND_DEF_STEREO_COUNT>
0

> <PUBCHEM_BOND_UDEF_STEREO_COUNT>
0

> <PUBCHEM_ISOTOPIC_ATOM_COUNT>
0

> <PUBCHEM_COMPONENT_COUNT>
1

> <PUBCHEM_CACTVS_TAUTO_COUNT>
3

> <PUBCHEM_CONFORMER_ID>
0001D4F000000002

> <PUBCHEM_MMFF94_ENERGY>
25.4482

> <PUBCHEM_FEATURE_SELFOVERLAP>
20.297

> <PUBCHEM_SHAPE_FINGERPRINT>
10353120 184 18268723735357763110
11206711 2 18192727648030841468
11471102 20 18409446969012164453
12423570 1 17557442984759868562
12897270 3 18335701598444294559
16945 1 18411139125891673274
17844478 74 17894358761079877741
18185500 45 18271239409229910799
193761 8 17689720761968450218
20201158 50 18260268512489101851
21040471 1 18192995035356461440
23552423 10 18119537526645538706
2748010 2 17979931715397460876
528886 8 18411699893669360114
63268167 104 18343022211291934769

> <PUBCHEM_SHAPE_MULTIPOLES>
223.48
4.03
2.04
0.84
2.32
0.56
0.18
-0.51
0.51
-0.78
-0.32
0.3
-0.03
-0.04

> <PUBCHEM_SHAPE_SELFOVERLAP>
460.237

> <PUBCHEM_SHAPE_VOLUME>
126.6

> <PUBCHEM_COORDINATE_TYPE>
2
5
10

$$$$
