120101
  -OEChem-11232109113D

 23 24  0     0  0  0  0  0  0999 V2000
    0.7439   -1.4705    0.1466 O   0  0  0  0  0  0  0  0  0  0  0  0
    1.0626    1.4998   -0.1550 O   0  0  0  0  0  0  0  0  0  0  0  0
    3.9885   -0.3125    0.0345 O   0  0  0  0  0  0  0  0  0  0  0  0
   -0.2767   -0.5599    0.0609 C   0  0  0  0  0  0  0  0  0  0  0  0
   -0.1279    0.8235   -0.0991 C   0  0  0  0  0  0  0  0  0  0  0  0
   -2.6894   -0.2963    0.0533 C   0  0  0  0  0  0  0  0  0  0  0  0
    1.8706   -1.1833   -0.6671 C   0  0  0  0  0  0  0  0  0  0  0  0
   -1.5613   -1.1081    0.1648 C   0  0  0  0  0  0  0  0  0  0  0  0
    2.0831    0.9843    0.6857 C   0  0  0  0  0  0  0  0  0  0  0  0
   -1.2656    1.6285   -0.2362 C   0  0  0  0  0  0  0  0  0  0  0  0
    2.7656   -0.1829    0.0189 C   0  0  0  0  0  0  0  0  0  0  0  0
   -2.5415    1.0713   -0.1577 C   0  0  0  0  0  0  0  0  0  0  0  0
   -4.0521   -0.8941    0.1504 C   0  0  0  0  0  0  0  0  0  0  0  0
    1.5868   -0.8261   -1.6641 H   0  0  0  0  0  0  0  0  0  0  0  0
    2.4294   -2.1167   -0.7921 H   0  0  0  0  0  0  0  0  0  0  0  0
    1.7056    0.6964    1.6740 H   0  0  0  0  0  0  0  0  0  0  0  0
    2.8218    1.7799    0.8281 H   0  0  0  0  0  0  0  0  0  0  0  0
   -1.6775   -2.1801    0.3118 H   0  0  0  0  0  0  0  0  0  0  0  0
   -1.1634    2.7009   -0.3851 H   0  0  0  0  0  0  0  0  0  0  0  0
   -3.4107    1.7161   -0.2562 H   0  0  0  0  0  0  0  0  0  0  0  0
   -4.7756   -0.1702    0.5406 H   0  0  0  0  0  0  0  0  0  0  0  0
   -4.3877   -1.2268   -0.8367 H   0  0  0  0  0  0  0  0  0  0  0  0
   -4.0584   -1.7517    0.8318 H   0  0  0  0  0  0  0  0  0  0  0  0
  1  4  1  0  0  0  0
  1  7  1  0  0  0  0
  2  5  1  0  0  0  0
  2  9  1  0  0  0  0
  3 11  2  0  0  0  0
  4  5  2  0  0  0  0
  4  8  1  0  0  0  0
  5 10  1  0  0  0  0
  6  8  2  0  0  0  0
  6 12  1  0  0  0  0
  6 13  1  0  0  0  0
  7 11  1  0  0  0  0
  7 14  1  0  0  0  0
  7 15  1  0  0  0  0
  8 18  1  0  0  0  0
  9 11  1  0  0  0  0
  9 16  1  0  0  0  0
  9 17  1  0  0  0  0
 10 12  2  0  0  0  0
 10 19  1  0  0  0  0
 12 20  1  0  0  0  0
 13 21  1  0  0  0  0
 13 22  1  0  0  0  0
 13 23  1  0  0  0  0
M  END
> <PUBCHEM_COMPOUND_CID>
120101

> <PUBCHEM_CONFORMER_RMSD>
0.4

> <PUBCHEM_CONFORMER_DIVERSEORDER>
1
6
2
5
3
4

> <PUBCHEM_MMFF94_PARTIAL_CHARGES>
16
1 -0.36
10 -0.15
11 0.45
12 -0.15
13 0.14
18 0.15
19 0.15
2 -0.36
20 0.15
3 -0.57
4 0.08
5 0.08
6 -0.14
7 0.34
8 -0.15
9 0.34

> <PUBCHEM_EFFECTIVE_ROTOR_COUNT>
0.8

> <PUBCHEM_PHARMACOPHORE_FEATURES>
5
1 1 acceptor
1 2 acceptor
1 3 acceptor
6 4 5 6 8 10 12 rings
7 1 2 4 5 7 9 11 rings

> <PUBCHEM_HEAVY_ATOM_COUNT>
13

> <PUBCHEM_ATOM_DEF_STEREO_COUNT>
0

> <PUBCHEM_ATOM_UDEF_STEREO_COUNT>
0

> <PUBCHEM_BOND_DEF_STEREO_COUNT>
0

> <PUBCHEM_BOND_UDEF_STEREO_COUNT>
0

> <PUBCHEM_ISOTOPIC_ATOM_COUNT>
0

> <PUBCHEM_COMPONENT_COUNT>
1

> <PUBCHEM_CACTVS_TAUTO_COUNT>
3

> <PUBCHEM_CONFORMER_ID>
0001D52500000001

> <PUBCHEM_MMFF94_ENERGY>
47.0124

> <PUBCHEM_FEATURE_SELFOVERLAP>
25.385

> <PUBCHEM_SHAPE_FINGERPRINT>
10608611 8 18412257324590280072
11132069 177 18341602767502631627
11471102 20 18411414042537725589
12032990 46 18336269032728746667
12932764 1 14404895839240197291
14325111 11 18410854360685417624
15219456 202 18343299240929891276
15775835 57 18115590331272638441
16945 1 18411133645207403015
17844478 74 18334864913414495065
200 152 17989194959159195245
20201158 50 18411982446667206455
20871998 22 18270692977842146375
21501502 16 18264768748924867083
22721475 48 18410300211119790921
23402539 116 18410282627655810015
23402655 69 18196637516080791061
23463225 33 18334574616559036640
23552423 10 18260551134148078037
23559900 14 17836925604137773566
2748010 2 18267021644102840999
5084963 1 18342459257006564497
528886 8 18411412895348888915
53812653 166 18339921511155226432
6333449 129 18411133598242415629
69090 78 18131345349652091575
7364860 26 18267306628237319444
8809292 202 18187932832182807891

> <PUBCHEM_SHAPE_MULTIPOLES>
249.93
5.71
1.63
0.68
0.12
0.25
0
-1.2
-0.26
0.21
0.07
-0.09
0
0.36

> <PUBCHEM_SHAPE_SELFOVERLAP>
535.742

> <PUBCHEM_SHAPE_VOLUME>
138.2

> <PUBCHEM_COORDINATE_TYPE>
2
5
10

$$$$
