12082921
  -OEChem-11232109053D

 31 31  0     1  0  0  0  0  0999 V2000
   -1.8910    0.0161   -0.8530 O   0  0  0  0  0  0  0  0  0  0  0  0
   -2.2521   -0.3356    1.3886 O   0  0  0  0  0  0  0  0  0  0  0  0
    0.6249    1.1805    0.1328 C   0  0  0  0  0  0  0  0  0  0  0  0
    0.0170   -0.1928    0.5474 C   0  0  2  0  0  0  0  0  0  0  0  0
    0.5886   -1.3809   -0.2695 C   0  0  1  0  0  0  0  0  0  0  0  0
    2.1674    1.1017    0.2986 C   0  0  0  0  0  0  0  0  0  0  0  0
    0.1035    2.3067    1.0502 C   0  0  0  0  0  0  0  0  0  0  0  0
    0.2793    1.5572   -1.3260 C   0  0  0  0  0  0  0  0  0  0  0  0
    2.0695   -1.2537   -0.5265 C   0  0  0  0  0  0  0  0  0  0  0  0
    2.7769   -0.1485   -0.2600 C   0  0  0  0  0  0  0  0  0  0  0  0
   -1.4843   -0.1839    0.4386 C   0  0  0  0  0  0  0  0  0  0  0  0
    0.3071   -2.7100    0.4437 C   0  0  0  0  0  0  0  0  0  0  0  0
   -3.3068    0.0431   -1.0649 C   0  0  0  0  0  0  0  0  0  0  0  0
    0.2519   -0.3554    1.6101 H   0  0  0  0  0  0  0  0  0  0  0  0
    0.1025   -1.4406   -1.2517 H   0  0  0  0  0  0  0  0  0  0  0  0
    2.4374    1.1515    1.3617 H   0  0  0  0  0  0  0  0  0  0  0  0
    2.6395    1.9693   -0.1791 H   0  0  0  0  0  0  0  0  0  0  0  0
    0.3046    2.0837    2.1040 H   0  0  0  0  0  0  0  0  0  0  0  0
    0.5891    3.2606    0.8138 H   0  0  0  0  0  0  0  0  0  0  0  0
   -0.9765    2.4530    0.9416 H   0  0  0  0  0  0  0  0  0  0  0  0
    0.4260    0.7333   -2.0300 H   0  0  0  0  0  0  0  0  0  0  0  0
   -0.7406    1.9390   -1.4333 H   0  0  0  0  0  0  0  0  0  0  0  0
    0.9253    2.3764   -1.6669 H   0  0  0  0  0  0  0  0  0  0  0  0
    2.5842   -2.1081   -0.9587 H   0  0  0  0  0  0  0  0  0  0  0  0
    3.8453   -0.1432   -0.4548 H   0  0  0  0  0  0  0  0  0  0  0  0
    0.7806   -2.7427    1.4315 H   0  0  0  0  0  0  0  0  0  0  0  0
   -0.7682   -2.8667    0.5783 H   0  0  0  0  0  0  0  0  0  0  0  0
    0.6896   -3.5567   -0.1378 H   0  0  0  0  0  0  0  0  0  0  0  0
   -3.4872    0.2085   -2.1303 H   0  0  0  0  0  0  0  0  0  0  0  0
   -3.7577    0.8647   -0.5004 H   0  0  0  0  0  0  0  0  0  0  0  0
   -3.7506   -0.9148   -0.7777 H   0  0  0  0  0  0  0  0  0  0  0  0
  1 11  1  0  0  0  0
  1 13  1  0  0  0  0
  2 11  2  0  0  0  0
  3  4  1  0  0  0  0
  3  6  1  0  0  0  0
  3  7  1  0  0  0  0
  3  8  1  0  0  0  0
  4  5  1  0  0  0  0
  4 11  1  0  0  0  0
  4 14  1  0  0  0  0
  5  9  1  0  0  0  0
  5 12  1  0  0  0  0
  5 15  1  0  0  0  0
  6 10  1  0  0  0  0
  6 16  1  0  0  0  0
  6 17  1  0  0  0  0
  7 18  1  0  0  0  0
  7 19  1  0  0  0  0
  7 20  1  0  0  0  0
  8 21  1  0  0  0  0
  8 22  1  0  0  0  0
  8 23  1  0  0  0  0
  9 10  2  0  0  0  0
  9 24  1  0  0  0  0
 10 25  1  0  0  0  0
 12 26  1  0  0  0  0
 12 27  1  0  0  0  0
 12 28  1  0  0  0  0
 13 29  1  0  0  0  0
 13 30  1  0  0  0  0
 13 31  1  0  0  0  0
M  END
> <PUBCHEM_COMPOUND_CID>
12082921

> <PUBCHEM_CONFORMER_RMSD>
0.6

> <PUBCHEM_CONFORMER_DIVERSEORDER>
3
1
9
12
2
5
4
11
6
10
7
8

> <PUBCHEM_MMFF94_PARTIAL_CHARGES>
11
1 -0.43
10 -0.29
11 0.66
13 0.28
2 -0.57
24 0.15
25 0.15
4 0.06
5 0.14
6 0.14
9 -0.29

> <PUBCHEM_EFFECTIVE_ROTOR_COUNT>
2.8

> <PUBCHEM_PHARMACOPHORE_FEATURES>
3
1 2 acceptor
3 3 7 8 hydrophobe
6 3 4 5 6 9 10 rings

> <PUBCHEM_HEAVY_ATOM_COUNT>
13

> <PUBCHEM_ATOM_DEF_STEREO_COUNT>
0

> <PUBCHEM_ATOM_UDEF_STEREO_COUNT>
2

> <PUBCHEM_BOND_DEF_STEREO_COUNT>
0

> <PUBCHEM_BOND_UDEF_STEREO_COUNT>
0

> <PUBCHEM_ISOTOPIC_ATOM_COUNT>
0

> <PUBCHEM_COMPONENT_COUNT>
1

> <PUBCHEM_CACTVS_TAUTO_COUNT>
1

> <PUBCHEM_CONFORMER_ID>
00B85EE900000003

> <PUBCHEM_MMFF94_ENERGY>
30.2216

> <PUBCHEM_FEATURE_SELFOVERLAP>
15.223

> <PUBCHEM_SHAPE_FINGERPRINT>
10353120 184 18125470568740588534
11206711 2 18193287286537954454
12423570 1 9559443869439577164
13380536 237 17764575917145515554
13380536 243 18260550073380768572
14614273 12 17827927221933153612
14817 1 9860004941730947596
15852999 172 17909805954135170096
16945 1 18343027696297318642
19010151 120 17988913453479468214
20201158 50 18261670372460515263
21501502 16 17975691688948590980
22802520 49 17825380782973186405
23419403 2 15082223739919236716
241688 4 17974864869274119192
2748010 2 17982180220939555646
3060560 45 18265027254854523999
5084963 1 17972602353263790411
5255222 1 17689172513408469297
528886 8 18409161117015314786
63268167 104 18271803557468521814

> <PUBCHEM_SHAPE_MULTIPOLES>
255.8
3.57
2.32
1.17
1.7
0.43
-0.03
0.27
-0.84
-0.78
0.42
0.53
-0.29
0.21

> <PUBCHEM_SHAPE_SELFOVERLAP>
511.824

> <PUBCHEM_SHAPE_VOLUME>
150.6

> <PUBCHEM_COORDINATE_TYPE>
2
5
10

$$$$
