121237820
  -OEChem-11232109113D

 40 40  0     1  0  0  0  0  0999 V2000
   -2.5518   -0.2270   -0.6139 O   0  0  0  0  0  0  0  0  0  0  0  0
   -4.0612    0.4201   -2.1552 O   0  0  0  0  0  0  0  0  0  0  0  0
   -2.2035   -0.3678    0.7821 C   0  0  2  0  0  0  0  0  0  0  0  0
   -2.3528    0.9334    1.5538 C   0  0  0  0  0  0  0  0  0  0  0  0
   -0.7736   -0.8876    0.8470 C   0  0  0  0  0  0  0  0  0  0  0  0
   -3.7556    1.4600    1.3319 C   0  0  0  0  0  0  0  0  0  0  0  0
   -0.5859   -2.2475    0.1667 C   0  0  0  0  0  0  0  0  0  0  0  0
   -3.9730    1.7067   -0.1462 C   0  0  0  0  0  0  0  0  0  0  0  0
    0.8271   -2.8338    0.2535 C   0  0  0  0  0  0  0  0  0  0  0  0
   -3.5681    0.5612   -1.0382 C   0  0  0  0  0  0  0  0  0  0  0  0
    1.8592   -1.9821   -0.4271 C   0  0  0  0  0  0  0  0  0  0  0  0
    3.9471   -0.5932   -0.4778 C   0  0  0  0  0  0  0  0  0  0  0  0
    2.9136   -1.4429    0.2023 C   0  0  0  0  0  0  0  0  0  0  0  0
    4.0480    0.7866    0.1754 C   0  0  0  0  0  0  0  0  0  0  0  0
    5.0769    1.6642   -0.5378 C   0  0  0  0  0  0  0  0  0  0  0  0
    5.1536    3.0496    0.0836 C   0  0  0  0  0  0  0  0  0  0  0  0
   -2.8777   -1.1256    1.2011 H   0  0  0  0  0  0  0  0  0  0  0  0
   -1.6265    1.6762    1.2008 H   0  0  0  0  0  0  0  0  0  0  0  0
   -2.1708    0.7720    2.6220 H   0  0  0  0  0  0  0  0  0  0  0  0
   -0.1095   -0.1595    0.3647 H   0  0  0  0  0  0  0  0  0  0  0  0
   -0.4591   -0.9687    1.8948 H   0  0  0  0  0  0  0  0  0  0  0  0
   -3.9063    2.3889    1.8927 H   0  0  0  0  0  0  0  0  0  0  0  0
   -4.4897    0.7343    1.7028 H   0  0  0  0  0  0  0  0  0  0  0  0
   -0.8705   -2.1709   -0.8905 H   0  0  0  0  0  0  0  0  0  0  0  0
   -1.2796   -2.9669    0.6203 H   0  0  0  0  0  0  0  0  0  0  0  0
   -3.3993    2.5839   -0.4675 H   0  0  0  0  0  0  0  0  0  0  0  0
   -5.0347    1.9168   -0.3177 H   0  0  0  0  0  0  0  0  0  0  0  0
    1.0861   -2.9935    1.3073 H   0  0  0  0  0  0  0  0  0  0  0  0
    0.8305   -3.8218   -0.2224 H   0  0  0  0  0  0  0  0  0  0  0  0
    1.7251   -1.8084   -1.4919 H   0  0  0  0  0  0  0  0  0  0  0  0
    3.7169   -0.4813   -1.5444 H   0  0  0  0  0  0  0  0  0  0  0  0
    4.9152   -1.1039   -0.4119 H   0  0  0  0  0  0  0  0  0  0  0  0
    4.3252    0.6804    1.2319 H   0  0  0  0  0  0  0  0  0  0  0  0
    3.0676    1.2794    0.1498 H   0  0  0  0  0  0  0  0  0  0  0  0
    3.0519   -1.6268    1.2649 H   0  0  0  0  0  0  0  0  0  0  0  0
    6.0650    1.1919   -0.4908 H   0  0  0  0  0  0  0  0  0  0  0  0
    4.8136    1.7617   -1.5975 H   0  0  0  0  0  0  0  0  0  0  0  0
    5.4445    2.9913    1.1373 H   0  0  0  0  0  0  0  0  0  0  0  0
    5.8959    3.6596   -0.4406 H   0  0  0  0  0  0  0  0  0  0  0  0
    4.1880    3.5617    0.0212 H   0  0  0  0  0  0  0  0  0  0  0  0
  1  3  1  0  0  0  0
  1 10  1  0  0  0  0
  2 10  2  0  0  0  0
  3  4  1  0  0  0  0
  3  5  1  0  0  0  0
  3 17  1  0  0  0  0
  4  6  1  0  0  0  0
  4 18  1  0  0  0  0
  4 19  1  0  0  0  0
  5  7  1  0  0  0  0
  5 20  1  0  0  0  0
  5 21  1  0  0  0  0
  6  8  1  0  0  0  0
  6 22  1  0  0  0  0
  6 23  1  0  0  0  0
  7  9  1  0  0  0  0
  7 24  1  0  0  0  0
  7 25  1  0  0  0  0
  8 10  1  0  0  0  0
  8 26  1  0  0  0  0
  8 27  1  0  0  0  0
  9 11  1  0  0  0  0
  9 28  1  0  0  0  0
  9 29  1  0  0  0  0
 11 13  2  3  0  0  0
 11 30  1  0  0  0  0
 12 13  1  0  0  0  0
 12 14  1  0  0  0  0
 12 31  1  0  0  0  0
 12 32  1  0  0  0  0
 13 35  1  0  0  0  0
 14 15  1  0  0  0  0
 14 33  1  0  0  0  0
 14 34  1  0  0  0  0
 15 16  1  0  0  0  0
 15 36  1  0  0  0  0
 15 37  1  0  0  0  0
 16 38  1  0  0  0  0
 16 39  1  0  0  0  0
 16 40  1  0  0  0  0
M  END
> <PUBCHEM_COMPOUND_CID>
121237820

> <PUBCHEM_CONFORMER_RMSD>
1

> <PUBCHEM_CONFORMER_DIVERSEORDER>
1
129
121
80
25
75
16
6
37
74
101
109
42
107
57
29
98
88
23
11
22
12
61
95
47
86
66
41
87
10
14
90
5
50
104
68
53
124
18
108
40
54
58
3
82
64
55
128
2
69
97
130
31
30
4
79
15
85
126
27
24
35
36
71
131
96
120
118
56
17
81
113
20
100
38
125
34
7
93
105
123
119
49
83
51
63
52
115
89
13
26
62
103
110
114
9
19
21
91
28
99
132
73
127
39
32
70
59
8
60
77
112
84
46
45
48
78
33
116
106
67
111
102
94
72
117
65
76
43
92
122
44

> <PUBCHEM_MMFF94_PARTIAL_CHARGES>
11
1 -0.43
10 0.66
11 -0.29
12 0.14
13 -0.29
2 -0.57
3 0.28
30 0.15
35 0.15
8 0.06
9 0.14

> <PUBCHEM_EFFECTIVE_ROTOR_COUNT>
8

> <PUBCHEM_PHARMACOPHORE_FEATURES>
5
1 16 hydrophobe
1 2 acceptor
4 12 13 14 15 hydrophobe
4 5 7 9 11 hydrophobe
6 1 3 4 6 8 10 rings

> <PUBCHEM_HEAVY_ATOM_COUNT>
16

> <PUBCHEM_ATOM_DEF_STEREO_COUNT>
0

> <PUBCHEM_ATOM_UDEF_STEREO_COUNT>
1

> <PUBCHEM_BOND_DEF_STEREO_COUNT>
0

> <PUBCHEM_BOND_UDEF_STEREO_COUNT>
1

> <PUBCHEM_ISOTOPIC_ATOM_COUNT>
0

> <PUBCHEM_COMPONENT_COUNT>
1

> <PUBCHEM_CACTVS_TAUTO_COUNT>
2

> <PUBCHEM_CONFORMER_ID>
0739F13C00000001

> <PUBCHEM_MMFF94_ENERGY>
10.0154

> <PUBCHEM_FEATURE_SELFOVERLAP>
25.373

> <PUBCHEM_SHAPE_FINGERPRINT>
10498660 4 18410578422432962128
10928967 22 8718834193301488256
10968037 57 8214150637631251672
13103583 49 12468633902885749310
14123255 352 18334294310024518068
14123255 52 18409733984644406050
14251710 61 10159707889048681950
14251732 14 16486684883124923805
14251764 38 18044362834413029660
14251764 75 18337966683062006928
14848178 96 18411699902881988112
15342168 16 18339934709874414257
15352361 1 9223238416728785728
1768 210 18128808836583357592
17780758 139 12324503364786694820
17834072 32 18337676416460703808
193927 3 11240005563998250606
19782 4 17967810535540208838
20621476 13 18409730621637845720
20621476 82 17023463041006204205
20621476 91 16806756012716862091
21095088 737 18270959162645378438
21401589 2 18188496881721203672
21591340 35 14933740947833781460
21713013 43 14189574135034674966
2838139 119 18413107256353936876
312425 83 17203066092450798092
474 4 18339925913581230858
5365585 94 10879728606063138388
56633871 153 11097840887537858097
633830 44 18200324212168637670
88748 71 10231490613790783928

> <PUBCHEM_SHAPE_MULTIPOLES>
317.53
11.44
3.16
1.32
8.15
0.21
0.28
-10.86
2.15
3.47
-0.27
-2.01
-0.36
-0.18

> <PUBCHEM_SHAPE_SELFOVERLAP>
608.344

> <PUBCHEM_SHAPE_VOLUME>
193.8

> <PUBCHEM_COORDINATE_TYPE>
2
5
10

$$$$
