1213
  -OEChem-11232108413D

 35 36  0     1  0  0  0  0  0999 V2000
    0.6698    0.5206   -1.8657 O   0  0  0  0  0  0  0  0  0  0  0  0
   -0.4782   -0.9636   -0.2739 C   0  0  1  0  0  0  0  0  0  0  0  0
    0.0977    0.4752   -0.5487 C   0  0  1  0  0  0  0  0  0  0  0  0
    1.2139    0.8592    0.4823 C   0  0  1  0  0  0  0  0  0  0  0  0
    0.6664   -2.0008   -0.1048 C   0  0  0  0  0  0  0  0  0  0  0  0
   -1.3582   -0.9500    1.0087 C   0  0  0  0  0  0  0  0  0  0  0  0
   -1.0496    1.5145   -0.5676 C   0  0  0  0  0  0  0  0  0  0  0  0
    2.3104   -0.2170    0.5721 C   0  0  0  0  0  0  0  0  0  0  0  0
    1.7397   -1.5887    0.8943 C   0  0  0  0  0  0  0  0  0  0  0  0
   -2.4567    0.1128    0.9882 C   0  0  0  0  0  0  0  0  0  0  0  0
   -1.9048    1.5015    0.6942 C   0  0  0  0  0  0  0  0  0  0  0  0
   -1.3392   -1.4702   -1.4620 C   0  0  0  0  0  0  0  0  0  0  0  0
    1.8887    2.2065    0.1829 C   0  0  0  0  0  0  0  0  0  0  0  0
    0.7664    0.9423    1.4801 H   0  0  0  0  0  0  0  0  0  0  0  0
    1.1527   -2.1778   -1.0734 H   0  0  0  0  0  0  0  0  0  0  0  0
    0.2514   -2.9694    0.2030 H   0  0  0  0  0  0  0  0  0  0  0  0
   -0.7410   -0.7752    1.8969 H   0  0  0  0  0  0  0  0  0  0  0  0
   -1.8217   -1.9340    1.1558 H   0  0  0  0  0  0  0  0  0  0  0  0
   -1.6939    1.3361   -1.4384 H   0  0  0  0  0  0  0  0  0  0  0  0
   -0.6610    2.5242   -0.7396 H   0  0  0  0  0  0  0  0  0  0  0  0
    3.0323    0.0539    1.3528 H   0  0  0  0  0  0  0  0  0  0  0  0
    2.8769   -0.2663   -0.3659 H   0  0  0  0  0  0  0  0  0  0  0  0
    2.5479   -2.3297    0.8834 H   0  0  0  0  0  0  0  0  0  0  0  0
    1.3349   -1.5926    1.9124 H   0  0  0  0  0  0  0  0  0  0  0  0
   -2.9706    0.1231    1.9565 H   0  0  0  0  0  0  0  0  0  0  0  0
   -3.2157   -0.1469    0.2415 H   0  0  0  0  0  0  0  0  0  0  0  0
   -2.7369    2.2057    0.5783 H   0  0  0  0  0  0  0  0  0  0  0  0
   -1.3186    1.8550    1.5498 H   0  0  0  0  0  0  0  0  0  0  0  0
   -0.7465   -1.5579   -2.3793 H   0  0  0  0  0  0  0  0  0  0  0  0
   -1.7501   -2.4639   -1.2475 H   0  0  0  0  0  0  0  0  0  0  0  0
   -2.1845   -0.8137   -1.6832 H   0  0  0  0  0  0  0  0  0  0  0  0
    2.6917    2.4032    0.9023 H   0  0  0  0  0  0  0  0  0  0  0  0
    2.3297    2.2259   -0.8189 H   0  0  0  0  0  0  0  0  0  0  0  0
    1.1831    3.0375    0.2656 H   0  0  0  0  0  0  0  0  0  0  0  0
    1.3633   -0.1555   -1.9287 H   0  0  0  0  0  0  0  0  0  0  0  0
  1  3  1  0  0  0  0
  1 35  1  0  0  0  0
  2  3  1  0  0  0  0
  2  5  1  0  0  0  0
  2  6  1  0  0  0  0
  2 12  1  0  0  0  0
  3  4  1  0  0  0  0
  3  7  1  0  0  0  0
  4  8  1  0  0  0  0
  4 13  1  0  0  0  0
  4 14  1  0  0  0  0
  5  9  1  0  0  0  0
  5 15  1  0  0  0  0
  5 16  1  0  0  0  0
  6 10  1  0  0  0  0
  6 17  1  0  0  0  0
  6 18  1  0  0  0  0
  7 11  1  0  0  0  0
  7 19  1  0  0  0  0
  7 20  1  0  0  0  0
  8  9  1  0  0  0  0
  8 21  1  0  0  0  0
  8 22  1  0  0  0  0
  9 23  1  0  0  0  0
  9 24  1  0  0  0  0
 10 11  1  0  0  0  0
 10 25  1  0  0  0  0
 10 26  1  0  0  0  0
 11 27  1  0  0  0  0
 11 28  1  0  0  0  0
 12 29  1  0  0  0  0
 12 30  1  0  0  0  0
 12 31  1  0  0  0  0
 13 32  1  0  0  0  0
 13 33  1  0  0  0  0
 13 34  1  0  0  0  0
M  END
> <PUBCHEM_COMPOUND_CID>
1213

> <PUBCHEM_CONFORMER_RMSD>
0.6

> <PUBCHEM_CONFORMER_DIVERSEORDER>
1
5
6
2
4
3

> <PUBCHEM_MMFF94_PARTIAL_CHARGES>
3
1 -0.68
3 0.28
35 0.4

> <PUBCHEM_EFFECTIVE_ROTOR_COUNT>
1.6

> <PUBCHEM_PHARMACOPHORE_FEATURES>
4
1 1 acceptor
1 1 donor
6 2 3 4 5 8 9 rings
6 2 3 6 7 10 11 rings

> <PUBCHEM_HEAVY_ATOM_COUNT>
13

> <PUBCHEM_ATOM_DEF_STEREO_COUNT>
0

> <PUBCHEM_ATOM_UDEF_STEREO_COUNT>
3

> <PUBCHEM_BOND_DEF_STEREO_COUNT>
0

> <PUBCHEM_BOND_UDEF_STEREO_COUNT>
0

> <PUBCHEM_ISOTOPIC_ATOM_COUNT>
0

> <PUBCHEM_COMPONENT_COUNT>
1

> <PUBCHEM_CACTVS_TAUTO_COUNT>
1

> <PUBCHEM_CONFORMER_ID>
000004BD00000001

> <PUBCHEM_MMFF94_ENERGY>
35.2694

> <PUBCHEM_FEATURE_SELFOVERLAP>
20.352

> <PUBCHEM_SHAPE_FINGERPRINT>
12423570 1 16764829593686415095
13024252 1 16883282858969894474
137420 1 13489772659381881007
144361 1 17899942080650892662
14617773 55 17914597587106969246
14761567 1 15669574351330663517
14817 1 13075416290722193663
15557651 10 17768011736374139865
15775835 57 18271536401981556025
16945 1 18336829671657330051
20511035 2 18262812756726172401
21922407 69 18198890595002952106
23236772 104 17696192886677987473
241688 4 17833230209226271714
2748010 2 18263926699180234408
5084963 1 17703783751736839706
535629 181 16979276185336092724
54276843 12 17533512371937228124
54338 74 17621307374545551401
68250623 7 17844536697959002124

> <PUBCHEM_SHAPE_MULTIPOLES>
261.66
2.88
2.27
1.33
0.02
0.18
-0.4
0.46
0.97
0.49
-0.06
-0.31
-0.19
-0.4

> <PUBCHEM_SHAPE_SELFOVERLAP>
531.95

> <PUBCHEM_SHAPE_VOLUME>
150.5

> <PUBCHEM_COORDINATE_TYPE>
2
5
10

$$$$
