121596001
  -OEChem-11232109003D

 55 57  0     1  0  0  0  0  0999 V2000
    2.4351    2.6118    0.2409 O   0  0  0  0  0  0  0  0  0  0  0  0
    2.5071    0.7899   -1.1718 O   0  0  0  0  0  0  0  0  0  0  0  0
   -4.6796    0.0766   -0.5444 C   0  0  2  0  0  0  0  0  0  0  0  0
   -3.6126   -0.1087    0.5861 C   0  0  1  0  0  0  0  0  0  0  0  0
   -4.8108   -2.1192   -0.1532 C   0  0  2  0  0  0  0  0  0  0  0  0
   -5.7693   -0.9302   -0.1417 C   0  0  0  0  0  0  0  0  0  0  0  0
   -4.2274   -0.5502   -1.8831 C   0  0  0  0  0  0  0  0  0  0  0  0
   -3.7326   -1.6158    0.7878 C   0  0  0  0  0  0  0  0  0  0  0  0
   -4.2511   -2.0609   -1.5844 C   0  0  0  0  0  0  0  0  0  0  0  0
   -2.2002    0.3238    0.1684 C   0  0  0  0  0  0  0  0  0  0  0  0
   -4.0109    0.6745    1.8507 C   0  0  0  0  0  0  0  0  0  0  0  0
   -3.0528   -2.3740    1.6552 C   0  0  0  0  0  0  0  0  0  0  0  0
   -2.2169    1.7170   -0.4468 C   0  0  0  0  0  0  0  0  0  0  0  0
   -0.8313    2.1394   -0.8458 C   0  0  0  0  0  0  0  0  0  0  0  0
    0.0786    2.7920   -0.0971 C   0  0  0  0  0  0  0  0  0  0  0  0
    1.4408    3.2146   -0.5765 C   0  0  0  0  0  0  0  0  0  0  0  0
   -0.2475    3.1841    1.3209 C   0  0  0  0  0  0  0  0  0  0  0  0
    2.8883    1.3861   -0.1737 C   0  0  0  0  0  0  0  0  0  0  0  0
    3.9318    0.8888    0.7981 C   0  0  0  0  0  0  0  0  0  0  0  0
    4.5176   -0.4417    0.4019 C   0  0  0  0  0  0  0  0  0  0  0  0
    3.9299   -1.6244    0.8509 C   0  0  0  0  0  0  0  0  0  0  0  0
    5.6479   -0.4905   -0.4140 C   0  0  0  0  0  0  0  0  0  0  0  0
    4.4726   -2.8560    0.4840 C   0  0  0  0  0  0  0  0  0  0  0  0
    6.1905   -1.7220   -0.7809 C   0  0  0  0  0  0  0  0  0  0  0  0
    5.6029   -2.9048   -0.3318 C   0  0  0  0  0  0  0  0  0  0  0  0
   -5.0452    1.1013   -0.6526 H   0  0  0  0  0  0  0  0  0  0  0  0
   -5.2526   -3.0786    0.1224 H   0  0  0  0  0  0  0  0  0  0  0  0
   -6.5688   -1.0177   -0.8863 H   0  0  0  0  0  0  0  0  0  0  0  0
   -6.2211   -0.7362    0.8358 H   0  0  0  0  0  0  0  0  0  0  0  0
   -3.2507   -0.2248   -2.2455 H   0  0  0  0  0  0  0  0  0  0  0  0
   -4.9555   -0.3197   -2.6707 H   0  0  0  0  0  0  0  0  0  0  0  0
   -4.9168   -2.5724   -2.2886 H   0  0  0  0  0  0  0  0  0  0  0  0
   -3.2551   -2.5092   -1.6672 H   0  0  0  0  0  0  0  0  0  0  0  0
   -1.7681   -0.3888   -0.5469 H   0  0  0  0  0  0  0  0  0  0  0  0
   -1.5270    0.3000    1.0363 H   0  0  0  0  0  0  0  0  0  0  0  0
   -4.2025    1.7299    1.6328 H   0  0  0  0  0  0  0  0  0  0  0  0
   -3.2251    0.6269    2.6137 H   0  0  0  0  0  0  0  0  0  0  0  0
   -4.9193    0.2764    2.3158 H   0  0  0  0  0  0  0  0  0  0  0  0
   -2.3049   -1.9424    2.3111 H   0  0  0  0  0  0  0  0  0  0  0  0
   -3.2320   -3.4414    1.7237 H   0  0  0  0  0  0  0  0  0  0  0  0
   -2.8287    1.7607   -1.3532 H   0  0  0  0  0  0  0  0  0  0  0  0
   -2.6607    2.4564    0.2257 H   0  0  0  0  0  0  0  0  0  0  0  0
   -0.5485    1.8726   -1.8632 H   0  0  0  0  0  0  0  0  0  0  0  0
    1.5426    4.3011   -0.4758 H   0  0  0  0  0  0  0  0  0  0  0  0
    1.5986    2.9889   -1.6381 H   0  0  0  0  0  0  0  0  0  0  0  0
    0.5211    2.8066    2.0042 H   0  0  0  0  0  0  0  0  0  0  0  0
   -1.1991    2.8017    1.6949 H   0  0  0  0  0  0  0  0  0  0  0  0
   -0.2725    4.2756    1.4082 H   0  0  0  0  0  0  0  0  0  0  0  0
    3.4727    0.8074    1.7906 H   0  0  0  0  0  0  0  0  0  0  0  0
    4.7322    1.6355    0.8644 H   0  0  0  0  0  0  0  0  0  0  0  0
    3.0478   -1.5994    1.4852 H   0  0  0  0  0  0  0  0  0  0  0  0
    6.1136    0.4238   -0.7719 H   0  0  0  0  0  0  0  0  0  0  0  0
    4.0147   -3.7769    0.8331 H   0  0  0  0  0  0  0  0  0  0  0  0
    7.0703   -1.7602   -1.4167 H   0  0  0  0  0  0  0  0  0  0  0  0
    6.0253   -3.8636   -0.6177 H   0  0  0  0  0  0  0  0  0  0  0  0
  1 16  1  0  0  0  0
  1 18  1  0  0  0  0
  2 18  2  0  0  0  0
  3  4  1  0  0  0  0
  3  6  1  0  0  0  0
  3  7  1  0  0  0  0
  3 26  1  0  0  0  0
  4  8  1  0  0  0  0
  4 10  1  0  0  0  0
  4 11  1  0  0  0  0
  5  6  1  0  0  0  0
  5  8  1  0  0  0  0
  5  9  1  0  0  0  0
  5 27  1  0  0  0  0
  6 28  1  0  0  0  0
  6 29  1  0  0  0  0
  7  9  1  0  0  0  0
  7 30  1  0  0  0  0
  7 31  1  0  0  0  0
  8 12  2  0  0  0  0
  9 32  1  0  0  0  0
  9 33  1  0  0  0  0
 10 13  1  0  0  0  0
 10 34  1  0  0  0  0
 10 35  1  0  0  0  0
 11 36  1  0  0  0  0
 11 37  1  0  0  0  0
 11 38  1  0  0  0  0
 12 39  1  0  0  0  0
 12 40  1  0  0  0  0
 13 14  1  0  0  0  0
 13 41  1  0  0  0  0
 13 42  1  0  0  0  0
 14 15  2  0  0  0  0
 14 43  1  0  0  0  0
 15 16  1  0  0  0  0
 15 17  1  0  0  0  0
 16 44  1  0  0  0  0
 16 45  1  0  0  0  0
 17 46  1  0  0  0  0
 17 47  1  0  0  0  0
 17 48  1  0  0  0  0
 18 19  1  0  0  0  0
 19 20  1  0  0  0  0
 19 49  1  0  0  0  0
 19 50  1  0  0  0  0
 20 21  2  0  0  0  0
 20 22  1  0  0  0  0
 21 23  1  0  0  0  0
 21 51  1  0  0  0  0
 22 24  2  0  0  0  0
 22 52  1  0  0  0  0
 23 25  2  0  0  0  0
 23 53  1  0  0  0  0
 24 25  1  0  0  0  0
 24 54  1  0  0  0  0
 25 55  1  0  0  0  0
M  END
> <PUBCHEM_COMPOUND_CID>
121596001

> <PUBCHEM_CONFORMER_RMSD>
1.2

> <PUBCHEM_CONFORMER_DIVERSEORDER>
2
147
127
163
39
62
133
94
29
103
142
111
69
59
41
125
16
117
144
13
8
50
9
74
129
174
66
30
56
64
101
14
49
86
61
93
12
35
75
72
18
1
51
155
153
43
115
99
77
140
10
126
108
70
104
33
85
32
22
4
136
106
44
171
25
114
154
78
148
45
91
110
122
11
105
124
31
46
47
71
90
36
158
96
164
145
80
167
76
143
119
102
98
89
19
79
15
138
128
38
162
65
73
169
63
112
84
123
7
131
165
151
53
173
54
135
159
130
34
27
6
107
172
67
156
141
170
161
113
146
26
21
28
82
149
120
157
97
83
118
160
88
132
139
60
40
5
48
42
23
52
121
87
95
168
134
150
166
37
109
100
137
17
55
20
24
81
3
57
92
152
58
68
116

> <PUBCHEM_MMFF94_PARTIAL_CHARGES>
27
1 -0.43
12 -0.3
13 0.14
14 -0.29
15 -0.28
16 0.42
17 0.14
18 0.66
19 0.2
2 -0.57
20 -0.14
21 -0.15
22 -0.15
23 -0.15
24 -0.15
25 -0.15
39 0.15
4 0.14
40 0.15
43 0.15
5 0.14
51 0.15
52 0.15
53 0.15
54 0.15
55 0.15
8 -0.28

> <PUBCHEM_EFFECTIVE_ROTOR_COUNT>
8.8

> <PUBCHEM_PHARMACOPHORE_FEATURES>
4
1 17 hydrophobe
1 2 acceptor
6 20 21 22 23 24 25 rings
7 3 4 5 6 7 8 9 rings

> <PUBCHEM_HEAVY_ATOM_COUNT>
25

> <PUBCHEM_ATOM_DEF_STEREO_COUNT>
0

> <PUBCHEM_ATOM_UDEF_STEREO_COUNT>
3

> <PUBCHEM_BOND_DEF_STEREO_COUNT>
1

> <PUBCHEM_BOND_UDEF_STEREO_COUNT>
0

> <PUBCHEM_ISOTOPIC_ATOM_COUNT>
0

> <PUBCHEM_COMPONENT_COUNT>
1

> <PUBCHEM_CACTVS_TAUTO_COUNT>
4

> <PUBCHEM_CONFORMER_ID>
073F686100000002

> <PUBCHEM_MMFF94_ENERGY>
66.857

> <PUBCHEM_FEATURE_SELFOVERLAP>
20.297

> <PUBCHEM_SHAPE_FINGERPRINT>
10928967 22 18412552028319392526
11135926 11 18044110166077528316
11796584 16 17821998843830014305
11991303 11 17680704813898009565
12107183 9 18270975544273950249
12422481 6 17275104986063664230
12596602 18 17489869362654620256
12760667 363 18411139104084676829
13103583 49 17917440782611607464
13533116 47 18197497531509812777
1361 87 17967824880741754723
13631057 29 18337675209949368544
13989917 61 18120659286289330715
14848178 5 18411411851782898073
14866123 147 18267306426737814761
14950920 106 17203604874433016032
15352361 1 18408603647772524544
17857418 61 18408885127007435126
18393751 57 10735881703462279757
19315092 285 17416959724161350051
20775530 9 18261392200656533832
21279426 13 18260817190719944445
21315763 87 18060126678896762130
21401589 2 10879985874113396189
23559900 14 18188768469567530465
23572383 38 18263071253464183138
2748736 6 8790593785333363878
2838139 119 8862943862249026552
3004659 81 17967531289888817052
3089732 80 18408603643604391654
312425 54 18060420175281232200
314194 84 18340769367986020692
3459 39 8718256868181464118
345986 75 17917717928219222353
44062 13 18262513676425743517
4573279 150 17462324410720624219
463206 1 18409449227796074010
508706 21 18040713641150773235
543368 44 11097854099394707023
613672 6 18261382395093404832
6431902 208 18408605846906816170
7970288 3 18411980235223461254

> <PUBCHEM_SHAPE_MULTIPOLES>
502.75
15.72
4.09
1.44
9.99
1.46
0.06
-14.39
-1.7
2.54
0.27
-1.55
-0.23
-0.2

> <PUBCHEM_SHAPE_SELFOVERLAP>
1059.591

> <PUBCHEM_SHAPE_VOLUME>
286.9

> <PUBCHEM_COORDINATE_TYPE>
2
5
10

$$$$
