121790
  -OEChem-11232108453D

 37 36  0     1  0  0  0  0  0999 V2000
   -2.1876   -1.3834    0.3429 O   0  0  0  0  0  0  0  0  0  0  0  0
   -1.0508    2.4197   -1.2301 O   0  0  0  0  0  0  0  0  0  0  0  0
   -2.3180   -0.0398   -1.5219 O   0  0  0  0  0  0  0  0  0  0  0  0
    1.0477    0.3201    0.1047 C   0  0  0  0  0  0  0  0  0  0  0  0
   -0.0693    0.4229    1.1516 C   0  0  0  0  0  0  0  0  0  0  0  0
    2.3565   -0.1598    0.7390 C   0  0  0  0  0  0  0  0  0  0  0  0
   -1.4307    0.8440    0.5723 C   0  0  1  0  0  0  0  0  0  0  0  0
    3.4816   -0.2270   -0.2961 C   0  0  0  0  0  0  0  0  0  0  0  0
    4.8079   -0.7248    0.2822 C   0  0  0  0  0  0  0  0  0  0  0  0
   -1.3333    2.2380   -0.0458 C   0  0  0  0  0  0  0  0  0  0  0  0
   -2.0164   -0.2171   -0.3491 C   0  0  0  0  0  0  0  0  0  0  0  0
    5.9359   -0.7696   -0.7369 C   0  0  0  0  0  0  0  0  0  0  0  0
   -1.5645    3.4093    0.8763 C   0  0  0  0  0  0  0  0  0  0  0  0
   -2.7695   -2.4620   -0.3963 C   0  0  0  0  0  0  0  0  0  0  0  0
   -2.8897   -3.6706    0.5073 C   0  0  0  0  0  0  0  0  0  0  0  0
    0.7538   -0.3753   -0.6901 H   0  0  0  0  0  0  0  0  0  0  0  0
    1.2170    1.2968   -0.3620 H   0  0  0  0  0  0  0  0  0  0  0  0
    0.2346    1.1487    1.9168 H   0  0  0  0  0  0  0  0  0  0  0  0
   -0.1686   -0.5416    1.6648 H   0  0  0  0  0  0  0  0  0  0  0  0
    2.6464    0.5200    1.5493 H   0  0  0  0  0  0  0  0  0  0  0  0
    2.2084   -1.1509    1.1844 H   0  0  0  0  0  0  0  0  0  0  0  0
   -2.1532    0.9308    1.3960 H   0  0  0  0  0  0  0  0  0  0  0  0
    3.1798   -0.8886   -1.1176 H   0  0  0  0  0  0  0  0  0  0  0  0
    3.6318    0.7690   -0.7312 H   0  0  0  0  0  0  0  0  0  0  0  0
    4.6675   -1.7289    0.6999 H   0  0  0  0  0  0  0  0  0  0  0  0
    5.1084   -0.0746    1.1125 H   0  0  0  0  0  0  0  0  0  0  0  0
    5.6864   -1.4399   -1.5655 H   0  0  0  0  0  0  0  0  0  0  0  0
    6.1305    0.2263   -1.1473 H   0  0  0  0  0  0  0  0  0  0  0  0
    6.8568   -1.1323   -0.2698 H   0  0  0  0  0  0  0  0  0  0  0  0
   -0.8133    3.4099    1.6694 H   0  0  0  0  0  0  0  0  0  0  0  0
   -1.4834    4.3428    0.3124 H   0  0  0  0  0  0  0  0  0  0  0  0
   -2.5675    3.3460    1.3052 H   0  0  0  0  0  0  0  0  0  0  0  0
   -2.1309   -2.7029   -1.2536 H   0  0  0  0  0  0  0  0  0  0  0  0
   -3.7622   -2.1663   -0.7533 H   0  0  0  0  0  0  0  0  0  0  0  0
   -3.3314   -4.5162   -0.0272 H   0  0  0  0  0  0  0  0  0  0  0  0
   -1.9062   -3.9668    0.8872 H   0  0  0  0  0  0  0  0  0  0  0  0
   -3.5107   -3.4396    1.3790 H   0  0  0  0  0  0  0  0  0  0  0  0
  1 11  1  0  0  0  0
  1 14  1  0  0  0  0
  2 10  2  0  0  0  0
  3 11  2  0  0  0  0
  4  5  1  0  0  0  0
  4  6  1  0  0  0  0
  4 16  1  0  0  0  0
  4 17  1  0  0  0  0
  5  7  1  0  0  0  0
  5 18  1  0  0  0  0
  5 19  1  0  0  0  0
  6  8  1  0  0  0  0
  6 20  1  0  0  0  0
  6 21  1  0  0  0  0
  7 10  1  0  0  0  0
  7 11  1  0  0  0  0
  7 22  1  0  0  0  0
  8  9  1  0  0  0  0
  8 23  1  0  0  0  0
  8 24  1  0  0  0  0
  9 12  1  0  0  0  0
  9 25  1  0  0  0  0
  9 26  1  0  0  0  0
 10 13  1  0  0  0  0
 12 27  1  0  0  0  0
 12 28  1  0  0  0  0
 12 29  1  0  0  0  0
 13 30  1  0  0  0  0
 13 31  1  0  0  0  0
 13 32  1  0  0  0  0
 14 15  1  0  0  0  0
 14 33  1  0  0  0  0
 14 34  1  0  0  0  0
 15 35  1  0  0  0  0
 15 36  1  0  0  0  0
 15 37  1  0  0  0  0
M  END
> <PUBCHEM_COMPOUND_CID>
121790

> <PUBCHEM_CONFORMER_RMSD>
1

> <PUBCHEM_CONFORMER_DIVERSEORDER>
1
330
13
43
35
540
196
219
5
128
105
129
328
373
61
255
73
406
103
18
570
162
77
127
60
4
273
155
663
2
487
453
280
610
122
28
75
603
595
292
447
143
567
106
3
159
94
278
23
99
485
530
6
140
620
426
206
250
483
41
192
167
21
380
78
40
524
441
74
42
14
421
71
24
69
10
642
350
107
156
26
344
658
303
100
298
47
211
433
126
305
348
577
429
98
592
32
20
675
247
357
91
36
608
150
264
8
168
17
37
457
82
403
12
50
174
315
383
405
651
431
55
214
92

> <PUBCHEM_MMFF94_PARTIAL_CHARGES>
8
1 -0.43
10 0.45
11 0.66
13 0.06
14 0.28
2 -0.57
3 -0.57
7 0.12

> <PUBCHEM_EFFECTIVE_ROTOR_COUNT>
9

> <PUBCHEM_PHARMACOPHORE_FEATURES>
6
1 12 hydrophobe
1 2 acceptor
1 3 acceptor
1 7 anion
3 4 5 7 hydrophobe
3 6 8 9 hydrophobe

> <PUBCHEM_HEAVY_ATOM_COUNT>
15

> <PUBCHEM_ATOM_DEF_STEREO_COUNT>
0

> <PUBCHEM_ATOM_UDEF_STEREO_COUNT>
1

> <PUBCHEM_BOND_DEF_STEREO_COUNT>
0

> <PUBCHEM_BOND_UDEF_STEREO_COUNT>
0

> <PUBCHEM_ISOTOPIC_ATOM_COUNT>
0

> <PUBCHEM_COMPONENT_COUNT>
1

> <PUBCHEM_CACTVS_TAUTO_COUNT>
5

> <PUBCHEM_CONFORMER_ID>
0001DBBE00000001

> <PUBCHEM_MMFF94_ENERGY>
8.2175

> <PUBCHEM_FEATURE_SELFOVERLAP>
30.462

> <PUBCHEM_SHAPE_FINGERPRINT>
10680689 15 18339089194523736104
11127187 94 18262224599583401767
12757275 245 18411139125928836906
13955234 65 17188418707909928995
14251731 5 18194402418551063034
14251764 30 17751370696951008987
14863182 85 15955272526872309111
17093844 174 8430313512310291262
17539 30 18412252944087199989
17859628 70 17257939724016743987
20300324 65 18261115175519051708
20645477 56 18197221347711602440
20645477 70 17327158349394335319
20871998 22 18051407663215086675
20871999 31 18270106907974541933
21061003 4 16917064486223446914
21426921 1 18411704257846775616
21665056 4 18122343467398103227
22224240 67 17985840237815259041
23557571 272 18412546513544084230
23559900 14 18340194272297531816
238078 22 18261957456764916698
27216 239 11674888779266232910
4921388 177 18341337682595856748
58051976 100 18341333306145488300
7364860 26 17474948105054970241
81228 2 18270943688316463969

> <PUBCHEM_SHAPE_MULTIPOLES>
291.09
8.47
3.71
1.09
18.55
0.22
0.15
5.94
1.48
-6.18
-0.52
-0.28
-0.25
0.25

> <PUBCHEM_SHAPE_SELFOVERLAP>
542.456

> <PUBCHEM_SHAPE_VOLUME>
182.3

> <PUBCHEM_COORDINATE_TYPE>
2
5
10

$$$$
