121777
  -OEChem-11232109013D

 30 31  0     1  0  0  0  0  0999 V2000
    0.7910    1.2568    0.1193 O   0  0  0  0  0  0  0  0  0  0  0  0
    0.3004   -0.0216   -0.3150 C   0  0  1  0  0  0  0  0  0  0  0  0
    2.2134    1.4196    0.0148 C   0  0  1  0  0  0  0  0  0  0  0  0
    0.9480   -1.1610    0.4856 C   0  0  0  0  0  0  0  0  0  0  0  0
    2.9527    0.3251    0.7944 C   0  0  0  0  0  0  0  0  0  0  0  0
    2.4448   -1.0367    0.4081 C   0  0  0  0  0  0  0  0  0  0  0  0
   -1.2064   -0.0352   -0.1576 C   0  0  0  0  0  0  0  0  0  0  0  0
    2.6618    1.5367   -1.4414 C   0  0  0  0  0  0  0  0  0  0  0  0
    3.2460   -2.0348    0.0124 C   0  0  0  0  0  0  0  0  0  0  0  0
   -1.9930   -0.7686   -1.0452 C   0  0  0  0  0  0  0  0  0  0  0  0
   -1.8055    0.6862    0.8744 C   0  0  0  0  0  0  0  0  0  0  0  0
   -3.3803   -0.7808   -0.9005 C   0  0  0  0  0  0  0  0  0  0  0  0
   -3.1927    0.6739    1.0192 C   0  0  0  0  0  0  0  0  0  0  0  0
   -3.9801   -0.0596    0.1316 C   0  0  0  0  0  0  0  0  0  0  0  0
    0.5269   -0.1265   -1.3833 H   0  0  0  0  0  0  0  0  0  0  0  0
    2.4366    2.3797    0.4955 H   0  0  0  0  0  0  0  0  0  0  0  0
    0.6028   -2.1338    0.1149 H   0  0  0  0  0  0  0  0  0  0  0  0
    0.6569   -1.0983    1.5426 H   0  0  0  0  0  0  0  0  0  0  0  0
    2.7584    0.4591    1.8665 H   0  0  0  0  0  0  0  0  0  0  0  0
    4.0352    0.4166    0.6492 H   0  0  0  0  0  0  0  0  0  0  0  0
    2.5399    0.5993   -1.9923 H   0  0  0  0  0  0  0  0  0  0  0  0
    2.0646    2.2922   -1.9630 H   0  0  0  0  0  0  0  0  0  0  0  0
    3.7165    1.8237   -1.4998 H   0  0  0  0  0  0  0  0  0  0  0  0
    4.3217   -1.9055   -0.0399 H   0  0  0  0  0  0  0  0  0  0  0  0
    2.8433   -3.0023   -0.2677 H   0  0  0  0  0  0  0  0  0  0  0  0
   -1.5373   -1.3362   -1.8521 H   0  0  0  0  0  0  0  0  0  0  0  0
   -1.2143    1.2547    1.5870 H   0  0  0  0  0  0  0  0  0  0  0  0
   -3.9934   -1.3525   -1.5911 H   0  0  0  0  0  0  0  0  0  0  0  0
   -3.6600    1.2328    1.8248 H   0  0  0  0  0  0  0  0  0  0  0  0
   -5.0603   -0.0699    0.2449 H   0  0  0  0  0  0  0  0  0  0  0  0
  1  2  1  0  0  0  0
  1  3  1  0  0  0  0
  2  4  1  0  0  0  0
  2  7  1  0  0  0  0
  2 15  1  0  0  0  0
  3  5  1  0  0  0  0
  3  8  1  0  0  0  0
  3 16  1  0  0  0  0
  4  6  1  0  0  0  0
  4 17  1  0  0  0  0
  4 18  1  0  0  0  0
  5  6  1  0  0  0  0
  5 19  1  0  0  0  0
  5 20  1  0  0  0  0
  6  9  2  0  0  0  0
  7 10  2  0  0  0  0
  7 11  1  0  0  0  0
  8 21  1  0  0  0  0
  8 22  1  0  0  0  0
  8 23  1  0  0  0  0
  9 24  1  0  0  0  0
  9 25  1  0  0  0  0
 10 12  1  0  0  0  0
 10 26  1  0  0  0  0
 11 13  2  0  0  0  0
 11 27  1  0  0  0  0
 12 14  2  0  0  0  0
 12 28  1  0  0  0  0
 13 14  1  0  0  0  0
 13 29  1  0  0  0  0
 14 30  1  0  0  0  0
M  END
> <PUBCHEM_COMPOUND_CID>
121777

> <PUBCHEM_CONFORMER_RMSD>
0.6

> <PUBCHEM_CONFORMER_DIVERSEORDER>
1
10
9
3
5
4
6
7
2
8

> <PUBCHEM_MMFF94_PARTIAL_CHARGES>
20
1 -0.56
10 -0.15
11 -0.15
12 -0.15
13 -0.15
14 -0.15
2 0.42
24 0.15
25 0.15
26 0.15
27 0.15
28 0.15
29 0.15
3 0.28
30 0.15
4 0.14
5 0.14
6 -0.28
7 -0.14
9 -0.3

> <PUBCHEM_EFFECTIVE_ROTOR_COUNT>
2

> <PUBCHEM_PHARMACOPHORE_FEATURES>
3
1 1 acceptor
6 1 2 3 4 5 6 rings
6 7 10 11 12 13 14 rings

> <PUBCHEM_HEAVY_ATOM_COUNT>
14

> <PUBCHEM_ATOM_DEF_STEREO_COUNT>
0

> <PUBCHEM_ATOM_UDEF_STEREO_COUNT>
2

> <PUBCHEM_BOND_DEF_STEREO_COUNT>
0

> <PUBCHEM_BOND_UDEF_STEREO_COUNT>
0

> <PUBCHEM_ISOTOPIC_ATOM_COUNT>
0

> <PUBCHEM_COMPONENT_COUNT>
1

> <PUBCHEM_CACTVS_TAUTO_COUNT>
1

> <PUBCHEM_CONFORMER_ID>
0001DBB100000001

> <PUBCHEM_MMFF94_ENERGY>
33.2815

> <PUBCHEM_FEATURE_SELFOVERLAP>
15.223

> <PUBCHEM_SHAPE_FINGERPRINT>
107287 299 17604439607876708900
10980938 120 18409730677129217392
11031198 65 18187936134938512996
11578080 2 17912888830369434841
12251169 10 18059851723200410442
12932764 1 18202568401453196817
13296908 3 16660363701267626025
13380535 21 18115881856578550554
13538477 17 18059569234901457975
13581323 91 17346590855308477019
14144814 61 18202845461234857305
14251717 144 18335133206725325435
15219456 202 16878224246404048829
15279307 12 18341331201095061926
15442244 35 18199468774915647344
15536298 74 18202279200035867066
15669948 3 17417523735082502111
15775835 57 18272091629531096281
16945 1 18339361992917597776
1813 80 18193005811799166294
18186145 218 17749103374992710923
19422 9 18343021094890646471
19786989 88 17603872272687740908
200 152 18272354374777655095
20279233 1 16515678966084134369
20339313 130 18186525375826393788
20559304 39 18273494576498357928
20645476 183 18270685397377798159
20645477 70 18260539022514721039
20671657 1 18410577331426860006
20708731 107 18261398840834092374
20715346 28 16732987556610143185
20871998 22 18125438614622184734
21499 59 18044099187940250484
21639500 275 18116426123345145765
21730867 7 17967253117488561094
22445834 79 18271802393664526347
2255824 54 18334297552603864506
22854114 111 18340204188712399368
23048698 100 18410292514918094297
232386 152 17704064088452349239
23402539 116 16988265484069399173
23463225 33 18272368642099966455
23557571 272 15841548604528141755
23598291 2 18341899554243480861
2748010 2 17973986385416717348
3248919 1 18261390082926251539
474 4 18124025995230414784
57096353 35 18199463436535088277
581208 293 18333726944454300376
6049 1 17022902328672507061
7364860 26 18272367594655330520
77492 1 18272933834226613873
8030462 33 18343024436053280481

> <PUBCHEM_SHAPE_MULTIPOLES>
282.24
6.79
1.65
1.12
2.93
0.17
-0.18
0.7
0.05
-1.75
-0.18
0.13
-0.2
-1

> <PUBCHEM_SHAPE_SELFOVERLAP>
589.263

> <PUBCHEM_SHAPE_VOLUME>
160

> <PUBCHEM_COORDINATE_TYPE>
2
5
10

$$$$
