121739
  -OEChem-11232109273D

 41 40  0     0  0  0  0  0  0999 V2000
   -4.1008    0.4607   -0.0148 O   0  0  0  0  0  0  0  0  0  0  0  0
   -2.9746   -1.5554   -0.0252 O   0  0  0  0  0  0  0  0  0  0  0  0
    3.2982    0.4858   -0.0475 C   0  0  0  0  0  0  0  0  0  0  0  0
    2.0274   -0.3671   -0.0345 C   0  0  0  0  0  0  0  0  0  0  0  0
    4.5528   -0.3896   -0.0065 C   0  0  0  0  0  0  0  0  0  0  0  0
    0.7713    0.5059   -0.0430 C   0  0  0  0  0  0  0  0  0  0  0  0
    5.8559    0.4144    0.0137 C   0  0  0  0  0  0  0  0  0  0  0  0
   -0.4978   -0.3450    0.0040 C   0  0  0  0  0  0  0  0  0  0  0  0
    7.1088   -0.4597    0.0798 C   0  0  0  0  0  0  0  0  0  0  0  0
   -1.7495    0.5231   -0.0380 C   0  0  0  0  0  0  0  0  0  0  0  0
    8.3749    0.3817    0.0246 C   0  0  0  0  0  0  0  0  0  0  0  0
   -2.9909   -0.3314   -0.0319 C   0  0  0  0  0  0  0  0  0  0  0  0
   -5.3522   -0.2330    0.0137 C   0  0  0  0  0  0  0  0  0  0  0  0
   -6.4799    0.7877    0.0299 C   0  0  0  0  0  0  0  0  0  0  0  0
   -7.8435    0.1220    0.0756 C   0  0  0  0  0  0  0  0  0  0  0  0
    3.3158    1.1108   -0.9483 H   0  0  0  0  0  0  0  0  0  0  0  0
    3.2971    1.1617    0.8161 H   0  0  0  0  0  0  0  0  0  0  0  0
    2.0234   -1.0051    0.8578 H   0  0  0  0  0  0  0  0  0  0  0  0
    2.0208   -1.0314   -0.9072 H   0  0  0  0  0  0  0  0  0  0  0  0
    4.5568   -1.0575   -0.8768 H   0  0  0  0  0  0  0  0  0  0  0  0
    4.5170   -1.0302    0.8836 H   0  0  0  0  0  0  0  0  0  0  0  0
    0.7883    1.1850    0.8181 H   0  0  0  0  0  0  0  0  0  0  0  0
    0.7654    1.1285   -0.9459 H   0  0  0  0  0  0  0  0  0  0  0  0
    5.8456    1.0953    0.8740 H   0  0  0  0  0  0  0  0  0  0  0  0
    5.8983    1.0421   -0.8853 H   0  0  0  0  0  0  0  0  0  0  0  0
   -0.4984   -0.9564    0.9153 H   0  0  0  0  0  0  0  0  0  0  0  0
   -0.5000   -1.0420   -0.8438 H   0  0  0  0  0  0  0  0  0  0  0  0
    7.1116   -1.1680   -0.7566 H   0  0  0  0  0  0  0  0  0  0  0  0
    7.1023   -1.0482    1.0044 H   0  0  0  0  0  0  0  0  0  0  0  0
   -1.7763    1.1820    0.8367 H   0  0  0  0  0  0  0  0  0  0  0  0
   -1.7561    1.1316   -0.9488 H   0  0  0  0  0  0  0  0  0  0  0  0
    8.4161    1.0836    0.8636 H   0  0  0  0  0  0  0  0  0  0  0  0
    9.2593   -0.2612    0.0756 H   0  0  0  0  0  0  0  0  0  0  0  0
    8.4252    0.9550   -0.9065 H   0  0  0  0  0  0  0  0  0  0  0  0
   -5.4330   -0.8703   -0.8747 H   0  0  0  0  0  0  0  0  0  0  0  0
   -5.3973   -0.8590    0.9127 H   0  0  0  0  0  0  0  0  0  0  0  0
   -6.3614    1.4530    0.8935 H   0  0  0  0  0  0  0  0  0  0  0  0
   -6.4076    1.4294   -0.8564 H   0  0  0  0  0  0  0  0  0  0  0  0
   -8.6347    0.8782    0.0858 H   0  0  0  0  0  0  0  0  0  0  0  0
   -7.9500   -0.4929    0.9749 H   0  0  0  0  0  0  0  0  0  0  0  0
   -7.9971   -0.5182   -0.7990 H   0  0  0  0  0  0  0  0  0  0  0  0
  1 12  1  0  0  0  0
  1 13  1  0  0  0  0
  2 12  2  0  0  0  0
  3  4  1  0  0  0  0
  3  5  1  0  0  0  0
  3 16  1  0  0  0  0
  3 17  1  0  0  0  0
  4  6  1  0  0  0  0
  4 18  1  0  0  0  0
  4 19  1  0  0  0  0
  5  7  1  0  0  0  0
  5 20  1  0  0  0  0
  5 21  1  0  0  0  0
  6  8  1  0  0  0  0
  6 22  1  0  0  0  0
  6 23  1  0  0  0  0
  7  9  1  0  0  0  0
  7 24  1  0  0  0  0
  7 25  1  0  0  0  0
  8 10  1  0  0  0  0
  8 26  1  0  0  0  0
  8 27  1  0  0  0  0
  9 11  1  0  0  0  0
  9 28  1  0  0  0  0
  9 29  1  0  0  0  0
 10 12  1  0  0  0  0
 10 30  1  0  0  0  0
 10 31  1  0  0  0  0
 11 32  1  0  0  0  0
 11 33  1  0  0  0  0
 11 34  1  0  0  0  0
 13 14  1  0  0  0  0
 13 35  1  0  0  0  0
 13 36  1  0  0  0  0
 14 15  1  0  0  0  0
 14 37  1  0  0  0  0
 14 38  1  0  0  0  0
 15 39  1  0  0  0  0
 15 40  1  0  0  0  0
 15 41  1  0  0  0  0
M  END
> <PUBCHEM_COMPOUND_CID>
121739

> <PUBCHEM_CONFORMER_RMSD>
1.2

> <PUBCHEM_CONFORMER_DIVERSEORDER>
1
8
42
58
55
5
31
34
54
9
38
29
37
44
20
49
10
21
22
57
36
39
18
27
6
32
46
60
7
52
47
12
33
40
51
35
26
2
4
19
43
25
15
59
45
11
28
24
41
53
56
13
3
16
14
48
17
23
50
30

> <PUBCHEM_MMFF94_PARTIAL_CHARGES>
5
1 -0.43
10 0.06
12 0.66
13 0.28
2 -0.57

> <PUBCHEM_EFFECTIVE_ROTOR_COUNT>
11

> <PUBCHEM_PHARMACOPHORE_FEATURES>
3
1 11 hydrophobe
1 15 hydrophobe
1 2 acceptor

> <PUBCHEM_HEAVY_ATOM_COUNT>
15

> <PUBCHEM_ATOM_DEF_STEREO_COUNT>
0

> <PUBCHEM_ATOM_UDEF_STEREO_COUNT>
0

> <PUBCHEM_BOND_DEF_STEREO_COUNT>
0

> <PUBCHEM_BOND_UDEF_STEREO_COUNT>
0

> <PUBCHEM_ISOTOPIC_ATOM_COUNT>
0

> <PUBCHEM_COMPONENT_COUNT>
1

> <PUBCHEM_CACTVS_TAUTO_COUNT>
1

> <PUBCHEM_CONFORMER_ID>
0001DB8B00000001

> <PUBCHEM_MMFF94_ENERGY>
-0.4114

> <PUBCHEM_FEATURE_SELFOVERLAP>
15.223

> <PUBCHEM_SHAPE_FINGERPRINT>
10968037 39 18413107264695756831
11315181 36 17703793643199529507
12091667 2 18343584045339641143
13533116 47 16845293778863818286
14123256 10 10375871874557734120
14251764 18 18409728447840711354
14251764 46 18410575084668353667
17834076 25 18410575084673641421
18006028 8 17632857520730685440
20281389 69 18334010592547825908
20621476 8 18335138670345478966
21150785 3 14189574134913297224
22224240 67 15841547479478689238
23035841 295 18113898264930243258
23402539 116 18341608244055491062
23521765 1 18341895190361548580
246663 6 12179847190750806905
28498 318 18342458110920183526
33684 2 18410855455833194505
3545911 37 18410572881344862567
42788 4 18410292519334432756
57583515 80 16415479359164467663
59567204 34 18270963428619847665
59755656 520 17022901281028015443
8209 1 18413670209927014325

> <PUBCHEM_SHAPE_MULTIPOLES>
296.95
25.12
0.91
0.61
9.11
0.13
0
-2.42
-0.75
-0.36
0
0.05
-0.01
-0.03

> <PUBCHEM_SHAPE_SELFOVERLAP>
539.176

> <PUBCHEM_SHAPE_VOLUME>
190.3

> <PUBCHEM_COORDINATE_TYPE>
2
5
10

$$$$
