121774
  -OEChem-11232109203D

 30 32  0     1  0  0  0  0  0999 V2000
   -3.6573    0.7472    0.1823 O   0  0  0  0  0  0  0  0  0  0  0  0
   -0.0166    0.2575   -0.7802 C   0  0  2  0  0  0  0  0  0  0  0  0
    0.7057   -1.0958   -0.5659 C   0  0  1  0  0  0  0  0  0  0  0  0
    0.7535    1.2024    0.1772 C   0  0  1  0  0  0  0  0  0  0  0  0
    1.7931   -0.7431    0.4773 C   0  0  2  0  0  0  0  0  0  0  0  0
    1.1235    0.3094    1.3596 C   0  0  0  0  0  0  0  0  0  0  0  0
   -1.5067   -0.0219   -0.5181 C   0  0  1  0  0  0  0  0  0  0  0  0
    2.1498    1.4568   -0.4325 C   0  0  0  0  0  0  0  0  0  0  0  0
    2.8663    0.1116   -0.2264 C   0  0  0  0  0  0  0  0  0  0  0  0
   -0.3563   -2.0914   -0.0931 C   0  0  0  0  0  0  0  0  0  0  0  0
   -1.5551   -1.2706    0.3583 C   0  0  0  0  0  0  0  0  0  0  0  0
   -2.2998    1.1378    0.0615 C   0  0  0  0  0  0  0  0  0  0  0  0
    0.0943    0.6077   -1.8142 H   0  0  0  0  0  0  0  0  0  0  0  0
    1.1656   -1.4653   -1.4900 H   0  0  0  0  0  0  0  0  0  0  0  0
    0.2326    2.1280    0.4269 H   0  0  0  0  0  0  0  0  0  0  0  0
    2.2049   -1.6062    1.0043 H   0  0  0  0  0  0  0  0  0  0  0  0
    0.2729   -0.0566    1.9325 H   0  0  0  0  0  0  0  0  0  0  0  0
    1.8221    0.7895    2.0548 H   0  0  0  0  0  0  0  0  0  0  0  0
   -1.9658   -0.3010   -1.4781 H   0  0  0  0  0  0  0  0  0  0  0  0
    2.6741    2.2496    0.1136 H   0  0  0  0  0  0  0  0  0  0  0  0
    2.1060    1.7437   -1.4879 H   0  0  0  0  0  0  0  0  0  0  0  0
    3.2034   -0.3253   -1.1717 H   0  0  0  0  0  0  0  0  0  0  0  0
    3.7422    0.2465    0.4184 H   0  0  0  0  0  0  0  0  0  0  0  0
    0.0045   -2.7618    0.6929 H   0  0  0  0  0  0  0  0  0  0  0  0
   -0.6573   -2.7183   -0.9419 H   0  0  0  0  0  0  0  0  0  0  0  0
   -2.4883   -1.8280    0.2211 H   0  0  0  0  0  0  0  0  0  0  0  0
   -1.4875   -1.0289    1.4228 H   0  0  0  0  0  0  0  0  0  0  0  0
   -2.2447    2.0110   -0.5963 H   0  0  0  0  0  0  0  0  0  0  0  0
   -1.9386    1.4188    1.0557 H   0  0  0  0  0  0  0  0  0  0  0  0
   -4.1421    1.5063    0.5489 H   0  0  0  0  0  0  0  0  0  0  0  0
  1 12  1  0  0  0  0
  1 30  1  0  0  0  0
  2  3  1  0  0  0  0
  2  4  1  0  0  0  0
  2  7  1  0  0  0  0
  2 13  1  0  0  0  0
  3  5  1  0  0  0  0
  3 10  1  0  0  0  0
  3 14  1  0  0  0  0
  4  6  1  0  0  0  0
  4  8  1  0  0  0  0
  4 15  1  0  0  0  0
  5  6  1  0  0  0  0
  5  9  1  0  0  0  0
  5 16  1  0  0  0  0
  6 17  1  0  0  0  0
  6 18  1  0  0  0  0
  7 11  1  0  0  0  0
  7 12  1  0  0  0  0
  7 19  1  0  0  0  0
  8  9  1  0  0  0  0
  8 20  1  0  0  0  0
  8 21  1  0  0  0  0
  9 22  1  0  0  0  0
  9 23  1  0  0  0  0
 10 11  1  0  0  0  0
 10 24  1  0  0  0  0
 10 25  1  0  0  0  0
 11 26  1  0  0  0  0
 11 27  1  0  0  0  0
 12 28  1  0  0  0  0
 12 29  1  0  0  0  0
M  END
> <PUBCHEM_COMPOUND_CID>
121774

> <PUBCHEM_CONFORMER_RMSD>
0.6

> <PUBCHEM_CONFORMER_DIVERSEORDER>
1
8
5
7
6
3
11
4
2
10
9

> <PUBCHEM_MMFF94_PARTIAL_CHARGES>
3
1 -0.68
12 0.28
30 0.4

> <PUBCHEM_EFFECTIVE_ROTOR_COUNT>
2.2

> <PUBCHEM_PHARMACOPHORE_FEATURES>
4
1 1 acceptor
1 1 donor
5 2 3 7 10 11 rings
7 2 3 4 5 6 8 9 rings

> <PUBCHEM_HEAVY_ATOM_COUNT>
12

> <PUBCHEM_ATOM_DEF_STEREO_COUNT>
0

> <PUBCHEM_ATOM_UDEF_STEREO_COUNT>
5

> <PUBCHEM_BOND_DEF_STEREO_COUNT>
0

> <PUBCHEM_BOND_UDEF_STEREO_COUNT>
0

> <PUBCHEM_ISOTOPIC_ATOM_COUNT>
0

> <PUBCHEM_COMPONENT_COUNT>
1

> <PUBCHEM_CACTVS_TAUTO_COUNT>
1

> <PUBCHEM_CONFORMER_ID>
0001DBAE00000001

> <PUBCHEM_MMFF94_ENERGY>
43.8228

> <PUBCHEM_FEATURE_SELFOVERLAP>
20.382

> <PUBCHEM_SHAPE_FINGERPRINT>
10219947 1 18261674775023546237
11031198 65 17917717881037274527
11680611 10 17896859127430081403
12423570 1 8473502096335218904
12491281 212 18261404398194920540
13380535 76 18411418406034886559
15775835 57 18260833712862948381
16945 1 18187071833052520910
20511035 2 18272078448555916254
20653085 51 18117014371162342604
207724 885 18333727983910213032
21040471 1 18341323483096437286
21501502 16 18337669823053018742
21922407 69 16299765715848376040
230 275 18271518689810649121
23235685 24 18411976944935413101
23559900 14 18273219712526134444
241688 4 17114950989649896906
2748010 2 18339080509340247252
276578 36 18270970050682886041
29004967 10 13984652646849513558
369184 2 9366806073424999894
5084963 1 17845373417375127743
528886 8 18410855456128665064
53812653 166 18343298158640324354
63268167 104 18129662967959535513
68250623 7 18115875268446670226

> <PUBCHEM_SHAPE_MULTIPOLES>
241.09
3.85
1.73
0.93
1.75
0.47
0.15
-1.41
0.11
0.25
-0.05
-0.22
-0.02
-0.09

> <PUBCHEM_SHAPE_SELFOVERLAP>
519.128

> <PUBCHEM_SHAPE_VOLUME>
140.1

> <PUBCHEM_COORDINATE_TYPE>
2
5
10

$$$$
