12217499
  -OEChem-11232109103D

 40 42  0     1  0  0  0  0  0999 V2000
   -0.8424    2.8322   -0.2422 O   0  0  0  0  0  0  0  0  0  0  0  0
    0.4774   -0.6775   -0.0254 C   0  0  2  0  0  0  0  0  0  0  0  0
   -0.4803    0.4626   -0.5329 C   0  0  1  0  0  0  0  0  0  0  0  0
   -1.5495   -1.3366    0.7030 C   0  0  2  0  0  0  0  0  0  0  0  0
   -1.8856    0.0301    0.0310 C   0  0  0  0  0  0  0  0  0  0  0  0
   -0.1718   -1.0633    1.3163 C   0  0  0  0  0  0  0  0  0  0  0  0
    1.9845   -0.3064    0.0165 C   0  0  0  0  0  0  0  0  0  0  0  0
    0.1557   -1.9501   -0.8703 C   0  0  0  0  0  0  0  0  0  0  0  0
   -1.1942   -2.4215   -0.3216 C   0  0  0  0  0  0  0  0  0  0  0  0
    2.1528    1.0655    0.7050 C   0  0  0  0  0  0  0  0  0  0  0  0
   -0.0476    1.8899   -0.1949 C   0  0  0  0  0  0  0  0  0  0  0  0
   -2.4936    0.9546    1.1111 C   0  0  0  0  0  0  0  0  0  0  0  0
   -2.9199   -0.0802   -1.1010 C   0  0  0  0  0  0  0  0  0  0  0  0
    1.4184    2.1839   -0.0075 C   0  0  0  0  0  0  0  0  0  0  0  0
    2.8184   -1.3278    0.8232 C   0  0  0  0  0  0  0  0  0  0  0  0
    2.5778   -0.2555   -1.4103 C   0  0  0  0  0  0  0  0  0  0  0  0
   -0.4857    0.4426   -1.6317 H   0  0  0  0  0  0  0  0  0  0  0  0
   -2.3017   -1.6739    1.4212 H   0  0  0  0  0  0  0  0  0  0  0  0
   -0.1661   -0.2607    2.0580 H   0  0  0  0  0  0  0  0  0  0  0  0
    0.2587   -1.9624    1.7716 H   0  0  0  0  0  0  0  0  0  0  0  0
    0.8966   -2.7442   -0.7351 H   0  0  0  0  0  0  0  0  0  0  0  0
    0.0964   -1.7337   -1.9424 H   0  0  0  0  0  0  0  0  0  0  0  0
   -1.9429   -2.5656   -1.1037 H   0  0  0  0  0  0  0  0  0  0  0  0
   -1.0687   -3.3879    0.1824 H   0  0  0  0  0  0  0  0  0  0  0  0
    3.2167    1.3299    0.7640 H   0  0  0  0  0  0  0  0  0  0  0  0
    1.7972    1.0083    1.7419 H   0  0  0  0  0  0  0  0  0  0  0  0
   -3.3457    0.4663    1.5993 H   0  0  0  0  0  0  0  0  0  0  0  0
   -2.8777    1.8856    0.6814 H   0  0  0  0  0  0  0  0  0  0  0  0
   -1.7775    1.2178    1.8952 H   0  0  0  0  0  0  0  0  0  0  0  0
   -2.5454   -0.6498   -1.9570 H   0  0  0  0  0  0  0  0  0  0  0  0
   -3.1869    0.9127   -1.4809 H   0  0  0  0  0  0  0  0  0  0  0  0
   -3.8373   -0.5642   -0.7486 H   0  0  0  0  0  0  0  0  0  0  0  0
    1.8543    2.3847   -0.9912 H   0  0  0  0  0  0  0  0  0  0  0  0
    1.5102    3.1014    0.5854 H   0  0  0  0  0  0  0  0  0  0  0  0
    2.7382   -2.3393    0.4142 H   0  0  0  0  0  0  0  0  0  0  0  0
    3.8816   -1.0589    0.8105 H   0  0  0  0  0  0  0  0  0  0  0  0
    2.5117   -1.3631    1.8739 H   0  0  0  0  0  0  0  0  0  0  0  0
    1.9792    0.3625   -2.0867 H   0  0  0  0  0  0  0  0  0  0  0  0
    3.5947    0.1537   -1.3985 H   0  0  0  0  0  0  0  0  0  0  0  0
    2.6392   -1.2556   -1.8537 H   0  0  0  0  0  0  0  0  0  0  0  0
  1 11  2  0  0  0  0
  2  3  1  0  0  0  0
  2  6  1  0  0  0  0
  2  7  1  0  0  0  0
  2  8  1  0  0  0  0
  3  5  1  0  0  0  0
  3 11  1  0  0  0  0
  3 17  1  0  0  0  0
  4  5  1  0  0  0  0
  4  6  1  0  0  0  0
  4  9  1  0  0  0  0
  4 18  1  0  0  0  0
  5 12  1  0  0  0  0
  5 13  1  0  0  0  0
  6 19  1  0  0  0  0
  6 20  1  0  0  0  0
  7 10  1  0  0  0  0
  7 15  1  0  0  0  0
  7 16  1  0  0  0  0
  8  9  1  0  0  0  0
  8 21  1  0  0  0  0
  8 22  1  0  0  0  0
  9 23  1  0  0  0  0
  9 24  1  0  0  0  0
 10 14  1  0  0  0  0
 10 25  1  0  0  0  0
 10 26  1  0  0  0  0
 11 14  1  0  0  0  0
 12 27  1  0  0  0  0
 12 28  1  0  0  0  0
 12 29  1  0  0  0  0
 13 30  1  0  0  0  0
 13 31  1  0  0  0  0
 13 32  1  0  0  0  0
 14 33  1  0  0  0  0
 14 34  1  0  0  0  0
 15 35  1  0  0  0  0
 15 36  1  0  0  0  0
 15 37  1  0  0  0  0
 16 38  1  0  0  0  0
 16 39  1  0  0  0  0
 16 40  1  0  0  0  0
M  END
> <PUBCHEM_COMPOUND_CID>
12217499

> <PUBCHEM_CONFORMER_RMSD>
0.6

> <PUBCHEM_CONFORMER_DIVERSEORDER>
2
1

> <PUBCHEM_MMFF94_PARTIAL_CHARGES>
4
1 -0.57
11 0.45
14 0.06
3 0.06

> <PUBCHEM_EFFECTIVE_ROTOR_COUNT>
1.4

> <PUBCHEM_PHARMACOPHORE_FEATURES>
5
1 1 acceptor
3 5 12 13 hydrophobe
3 7 15 16 hydrophobe
6 2 3 7 10 11 14 rings
7 2 3 4 5 6 8 9 rings

> <PUBCHEM_HEAVY_ATOM_COUNT>
16

> <PUBCHEM_ATOM_DEF_STEREO_COUNT>
3

> <PUBCHEM_ATOM_UDEF_STEREO_COUNT>
0

> <PUBCHEM_BOND_DEF_STEREO_COUNT>
0

> <PUBCHEM_BOND_UDEF_STEREO_COUNT>
0

> <PUBCHEM_ISOTOPIC_ATOM_COUNT>
0

> <PUBCHEM_COMPONENT_COUNT>
1

> <PUBCHEM_CACTVS_TAUTO_COUNT>
2

> <PUBCHEM_CONFORMER_ID>
00BA6C9B00000002

> <PUBCHEM_MMFF94_ENERGY>
73.0738

> <PUBCHEM_FEATURE_SELFOVERLAP>
25.408

> <PUBCHEM_SHAPE_FINGERPRINT>
10353120 184 18263377918271214180
10863032 1 18196922482000249298
10967382 1 18338512040332783861
12382932 28 18267858570136463072
12423570 1 11925088675963748923
12491281 212 18341904008034915545
12524768 44 18341055206548933070
12696612 119 17976824507974043880
13024252 1 16588022407159514162
13140716 1 18410576222845315034
13172582 1 18411140203627829899
14251711 518 18122908887110557570
144361 1 17834658766898961387
15076042 46 18189053092945010826
15775835 57 18259982690815401670
16945 1 18409450245676604890
19868273 325 18337685216300132278
20511035 2 18263094356014081757
21130352 189 18409160021978015352
21501502 16 18120650489994776226
22802520 49 18199487535533490230
2334 1 18194122047353865518
23402539 116 18199727216130793487
23419403 2 16330684051551547855
23493267 7 16878513314962150937
23559900 14 17767686058644526286
2748010 2 18267026235275128734
3060560 45 18197189543673552175
5084963 1 17988629758010005291
528886 8 18342465802668624739
63268167 104 18335413625240165241
74978 22 18411703226706614246

> <PUBCHEM_SHAPE_MULTIPOLES>
323.4
3.69
2.6
1.19
0.32
0.76
0
-0.14
-0.08
-0.11
-0.1
0
-0.22
-0.12

> <PUBCHEM_SHAPE_SELFOVERLAP>
694.385

> <PUBCHEM_SHAPE_VOLUME>
184.8

> <PUBCHEM_COORDINATE_TYPE>
2
5
10

$$$$
