12242463
  -OEChem-11232108463D

 33 33  0     1  0  0  0  0  0999 V2000
    1.5027   -0.6339    0.0119 O   0  0  0  0  0  0  0  0  0  0  0  0
    2.8440   -2.4431    0.0330 O   0  0  0  0  0  0  0  0  0  0  0  0
    1.3147    0.7529   -0.3509 C   0  0  1  0  0  0  0  0  0  0  0  0
   -0.0449    1.1849    0.1815 C   0  0  0  0  0  0  0  0  0  0  0  0
    2.4239    1.6486    0.1771 C   0  0  0  0  0  0  0  0  0  0  0  0
   -1.1594    0.2645   -0.3157 C   0  0  0  0  0  0  0  0  0  0  0  0
    3.7521    1.0799   -0.2776 C   0  0  0  0  0  0  0  0  0  0  0  0
   -2.5194    0.6821    0.2483 C   0  0  0  0  0  0  0  0  0  0  0  0
    3.9140   -0.3224    0.2709 C   0  0  0  0  0  0  0  0  0  0  0  0
   -3.6275   -0.2636   -0.2203 C   0  0  0  0  0  0  0  0  0  0  0  0
    2.7228   -1.2202    0.0539 C   0  0  0  0  0  0  0  0  0  0  0  0
   -5.0070    0.0960    0.3356 C   0  0  0  0  0  0  0  0  0  0  0  0
   -6.1159   -0.8257   -0.1477 C   0  0  0  0  0  0  0  0  0  0  0  0
    1.2962    0.7911   -1.4476 H   0  0  0  0  0  0  0  0  0  0  0  0
   -0.2529    2.2196   -0.1156 H   0  0  0  0  0  0  0  0  0  0  0  0
   -0.0350    1.1542    1.2787 H   0  0  0  0  0  0  0  0  0  0  0  0
    2.4017    1.6845    1.2735 H   0  0  0  0  0  0  0  0  0  0  0  0
    2.3009    2.6728   -0.1917 H   0  0  0  0  0  0  0  0  0  0  0  0
   -1.1935    0.2861   -1.4118 H   0  0  0  0  0  0  0  0  0  0  0  0
   -0.9607   -0.7720   -0.0189 H   0  0  0  0  0  0  0  0  0  0  0  0
    4.5757    1.7144    0.0676 H   0  0  0  0  0  0  0  0  0  0  0  0
    3.7944    1.0610   -1.3736 H   0  0  0  0  0  0  0  0  0  0  0  0
   -2.7523    1.7061   -0.0674 H   0  0  0  0  0  0  0  0  0  0  0  0
   -2.4804    0.6817    1.3443 H   0  0  0  0  0  0  0  0  0  0  0  0
    4.0956   -0.2830    1.3513 H   0  0  0  0  0  0  0  0  0  0  0  0
    4.7860   -0.7887   -0.2010 H   0  0  0  0  0  0  0  0  0  0  0  0
   -3.3798   -1.2899    0.0784 H   0  0  0  0  0  0  0  0  0  0  0  0
   -3.6693   -0.2549   -1.3166 H   0  0  0  0  0  0  0  0  0  0  0  0
   -4.9752    0.0681    1.4312 H   0  0  0  0  0  0  0  0  0  0  0  0
   -5.2553    1.1256    0.0514 H   0  0  0  0  0  0  0  0  0  0  0  0
   -7.0765   -0.5226    0.2803 H   0  0  0  0  0  0  0  0  0  0  0  0
   -5.9205   -1.8606    0.1506 H   0  0  0  0  0  0  0  0  0  0  0  0
   -6.2026   -0.7931   -1.2384 H   0  0  0  0  0  0  0  0  0  0  0  0
  1  3  1  0  0  0  0
  1 11  1  0  0  0  0
  2 11  2  0  0  0  0
  3  4  1  0  0  0  0
  3  5  1  0  0  0  0
  3 14  1  0  0  0  0
  4  6  1  0  0  0  0
  4 15  1  0  0  0  0
  4 16  1  0  0  0  0
  5  7  1  0  0  0  0
  5 17  1  0  0  0  0
  5 18  1  0  0  0  0
  6  8  1  0  0  0  0
  6 19  1  0  0  0  0
  6 20  1  0  0  0  0
  7  9  1  0  0  0  0
  7 21  1  0  0  0  0
  7 22  1  0  0  0  0
  8 10  1  0  0  0  0
  8 23  1  0  0  0  0
  8 24  1  0  0  0  0
  9 11  1  0  0  0  0
  9 25  1  0  0  0  0
  9 26  1  0  0  0  0
 10 12  1  0  0  0  0
 10 27  1  0  0  0  0
 10 28  1  0  0  0  0
 12 13  1  0  0  0  0
 12 29  1  0  0  0  0
 12 30  1  0  0  0  0
 13 31  1  0  0  0  0
 13 32  1  0  0  0  0
 13 33  1  0  0  0  0
M  END
> <PUBCHEM_COMPOUND_CID>
12242463

> <PUBCHEM_CONFORMER_RMSD>
0.6

> <PUBCHEM_CONFORMER_DIVERSEORDER>
1
114
69
119
5
129
65
136
135
7
18
111
50
121
89
127
3
123
110
34
132
45
6
109
2
112
84
12
71
131
22
120
20
128
13
62
56
115
17
10
26
66
116
25
82
95
16
126
23
9
104
134
48
14
40
43
35
49
125
30
78
31
24
81
130
113
68
11
108
27
102
118
60
46
47
61
83
124
91
85
64
75
79
117
41
32
4
88
133
51
94
15
87
37
74
52
105
122
98
33
44
19
8
72
54
58
97
103
29
99
80
93
36
96
107
42
39
38
70
63
59
90
55
57
86
76
21
28
100
77
101
53
73
67
92
106

> <PUBCHEM_MMFF94_PARTIAL_CHARGES>
5
1 -0.43
11 0.66
2 -0.57
3 0.28
9 0.06

> <PUBCHEM_EFFECTIVE_ROTOR_COUNT>
6

> <PUBCHEM_PHARMACOPHORE_FEATURES>
4
1 13 hydrophobe
1 2 acceptor
5 4 6 8 10 12 hydrophobe
6 1 3 5 7 9 11 rings

> <PUBCHEM_HEAVY_ATOM_COUNT>
13

> <PUBCHEM_ATOM_DEF_STEREO_COUNT>
1

> <PUBCHEM_ATOM_UDEF_STEREO_COUNT>
0

> <PUBCHEM_BOND_DEF_STEREO_COUNT>
0

> <PUBCHEM_BOND_UDEF_STEREO_COUNT>
0

> <PUBCHEM_ISOTOPIC_ATOM_COUNT>
0

> <PUBCHEM_COMPONENT_COUNT>
1

> <PUBCHEM_CACTVS_TAUTO_COUNT>
1

> <PUBCHEM_CONFORMER_ID>
00BACE1F00000001

> <PUBCHEM_MMFF94_ENERGY>
9.5068

> <PUBCHEM_FEATURE_SELFOVERLAP>
20.297

> <PUBCHEM_SHAPE_FINGERPRINT>
10912923 1 17917716820823924185
11471102 20 18408886252346882428
11987891 38 18409169913656976227
12107183 9 17766568949986378625
12616999 72 18187653517806365820
13167823 11 18272088318770583703
13533116 47 18342739607334969835
13836976 161 18261398888179031252
14123238 8 18335702767202958597
14251717 144 18409167697021438746
14252887 29 18260269641896663257
15242433 33 18412545435802743831
15375462 189 18131062740566397325
15477762 27 18335985294261982004
17834072 33 18341893030573221509
17834074 16 18334298690696189211
200 152 18343300375429128393
20279233 1 17385448725826271849
20432913 95 18409172108385193291
20645477 70 18408039589607024415
21267235 1 18341338816367190854
22224240 67 18340195406300721424
22485316 2 18411698799027692869
23402539 116 12035723254438336625
23557571 272 17240475892974484669
2871803 45 18040996215707534171
33824 294 18335137592198184202
42 15 18410857651104977117
4214541 1 18410575055368915329
42630746 31 18412825815689491860
522135 26 18410575089005674933
57483677 66 18342455976469227855
581208 293 18408602569841293224
77779 3 18409731738355580013
94968 8 18335704897359174250

> <PUBCHEM_SHAPE_MULTIPOLES>
255.8
11.47
1.66
0.66
17.23
0.66
0
2.73
0.2
-1.99
0.05
0.05
-0.04
-0.24

> <PUBCHEM_SHAPE_SELFOVERLAP>
488.943

> <PUBCHEM_SHAPE_VOLUME>
156.9

> <PUBCHEM_COORDINATE_TYPE>
2
5
10

$$$$
