122594
  -OEChem-11232109103D

 25 25  0     0  0  0  0  0  0999 V2000
    0.2118   -1.3950    0.3405 N   0  0  0  0  0  0  0  0  0  0  0  0
    1.6043    0.9941   -0.1278 N   0  0  0  0  0  0  0  0  0  0  0  0
   -1.8673   -0.1994    0.6366 C   0  0  0  0  0  0  0  0  0  0  0  0
   -2.6886   -0.3182   -0.6478 C   0  0  0  0  0  0  0  0  0  0  0  0
   -0.3869   -0.1957    0.3532 C   0  0  0  0  0  0  0  0  0  0  0  0
    0.2808    0.9777    0.1264 C   0  0  0  0  0  0  0  0  0  0  0  0
   -4.1796   -0.3518   -0.3521 C   0  0  0  0  0  0  0  0  0  0  0  0
    2.2192   -0.2052   -0.1437 C   0  0  0  0  0  0  0  0  0  0  0  0
   -0.4113    2.2979    0.1477 C   0  0  0  0  0  0  0  0  0  0  0  0
    1.5352   -1.3787    0.0862 C   0  0  0  0  0  0  0  0  0  0  0  0
    3.6824   -0.2256   -0.4191 C   0  0  0  0  0  0  0  0  0  0  0  0
   -2.0896   -1.0582    1.2842 H   0  0  0  0  0  0  0  0  0  0  0  0
   -2.1681    0.6814    1.2143 H   0  0  0  0  0  0  0  0  0  0  0  0
   -2.4769    0.5184   -1.3229 H   0  0  0  0  0  0  0  0  0  0  0  0
   -2.4106   -1.2327   -1.1864 H   0  0  0  0  0  0  0  0  0  0  0  0
   -4.4343   -1.2038    0.2863 H   0  0  0  0  0  0  0  0  0  0  0  0
   -4.4995    0.5651    0.1534 H   0  0  0  0  0  0  0  0  0  0  0  0
   -4.7487   -0.4428   -1.2827 H   0  0  0  0  0  0  0  0  0  0  0  0
   -1.2244    2.3350   -0.5822 H   0  0  0  0  0  0  0  0  0  0  0  0
   -0.8018    2.5164    1.1464 H   0  0  0  0  0  0  0  0  0  0  0  0
    0.2880    3.1015   -0.1089 H   0  0  0  0  0  0  0  0  0  0  0  0
    2.0224   -2.3466    0.0756 H   0  0  0  0  0  0  0  0  0  0  0  0
    4.2233   -0.6605    0.4273 H   0  0  0  0  0  0  0  0  0  0  0  0
    3.8929   -0.8137   -1.3180 H   0  0  0  0  0  0  0  0  0  0  0  0
    4.0660    0.7871   -0.5806 H   0  0  0  0  0  0  0  0  0  0  0  0
  1  5  2  0  0  0  0
  1 10  1  0  0  0  0
  2  6  2  0  0  0  0
  2  8  1  0  0  0  0
  3  4  1  0  0  0  0
  3  5  1  0  0  0  0
  3 12  1  0  0  0  0
  3 13  1  0  0  0  0
  4  7  1  0  0  0  0
  4 14  1  0  0  0  0
  4 15  1  0  0  0  0
  5  6  1  0  0  0  0
  6  9  1  0  0  0  0
  7 16  1  0  0  0  0
  7 17  1  0  0  0  0
  7 18  1  0  0  0  0
  8 10  2  0  0  0  0
  8 11  1  0  0  0  0
  9 19  1  0  0  0  0
  9 20  1  0  0  0  0
  9 21  1  0  0  0  0
 10 22  1  0  0  0  0
 11 23  1  0  0  0  0
 11 24  1  0  0  0  0
 11 25  1  0  0  0  0
M  END
> <PUBCHEM_COMPOUND_CID>
122594

> <PUBCHEM_CONFORMER_RMSD>
0.4

> <PUBCHEM_CONFORMER_DIVERSEORDER>
2
9
6
7
8
3
4
5
1

> <PUBCHEM_MMFF94_PARTIAL_CHARGES>
10
1 -0.62
10 0.16
11 0.14
2 -0.62
22 0.15
3 0.14
5 0.17
6 0.17
8 0.17
9 0.14

> <PUBCHEM_EFFECTIVE_ROTOR_COUNT>
2

> <PUBCHEM_PHARMACOPHORE_FEATURES>
4
1 1 acceptor
1 2 acceptor
1 7 hydrophobe
6 1 2 5 6 8 10 rings

> <PUBCHEM_HEAVY_ATOM_COUNT>
11

> <PUBCHEM_ATOM_DEF_STEREO_COUNT>
0

> <PUBCHEM_ATOM_UDEF_STEREO_COUNT>
0

> <PUBCHEM_BOND_DEF_STEREO_COUNT>
0

> <PUBCHEM_BOND_UDEF_STEREO_COUNT>
0

> <PUBCHEM_ISOTOPIC_ATOM_COUNT>
0

> <PUBCHEM_COMPONENT_COUNT>
1

> <PUBCHEM_CACTVS_TAUTO_COUNT>
2

> <PUBCHEM_CONFORMER_ID>
0001DEE200000002

> <PUBCHEM_MMFF94_ENERGY>
21.13

> <PUBCHEM_FEATURE_SELFOVERLAP>
20.301

> <PUBCHEM_SHAPE_FINGERPRINT>
10219947 1 18343586256504169023
11062470 55 17530965782484632926
11206711 2 18335992956388881260
11401426 45 18411411826171083402
12032990 46 18410864277743824619
12251169 10 10519981578260923149
12897270 3 18409730646858698559
14128692 85 17988637553671059655
14911166 2 18408610279223213238
14993402 34 18202001044805210271
15477762 27 18342172319295793927
15757776 16 18412257333264448375
16945 1 18336558156973529338
193761 8 17833552288781665602
20201158 50 18260830392958749619
21293036 1 18334859432693399006
21501502 16 18120939399865837994
221490 88 18049162464924949315
23402539 116 18341324527010945286
23402655 69 18336537236594038717
23552423 10 17973449801930338250
2748010 2 18050017880575606386
528886 8 18410571803376851139

> <PUBCHEM_SHAPE_MULTIPOLES>
216.41
5.49
1.62
0.74
2.39
0.85
0.01
-1.43
1.37
-0.18
-0.12
0.17
-0.04
-0.1

> <PUBCHEM_SHAPE_SELFOVERLAP>
434.16

> <PUBCHEM_SHAPE_VOLUME>
128

> <PUBCHEM_COORDINATE_TYPE>
2
5
10

$$$$
