122549
  -OEChem-11232109433D

 44 46  0     0  0  0  0  0  0999 V2000
   -2.5242   -2.3580    1.0239 O   0  0  0  0  0  0  0  0  0  0  0  0
    0.6010    0.8833   -0.0149 C   0  0  0  0  0  0  0  0  0  0  0  0
    2.0970   -1.3200   -0.0027 C   0  0  0  0  0  0  0  0  0  0  0  0
   -0.2914    2.1950   -0.0535 C   0  0  0  0  0  0  0  0  0  0  0  0
    1.4377    0.7540    1.2947 C   0  0  0  0  0  0  0  0  0  0  0  0
    1.6100    0.8431   -1.2039 C   0  0  0  0  0  0  0  0  0  0  0  0
   -0.2394   -0.4103   -0.0773 C   0  0  0  0  0  0  0  0  0  0  0  0
    2.2147   -0.5750    1.3443 C   0  0  0  0  0  0  0  0  0  0  0  0
    2.5590   -0.3599   -1.1134 C   0  0  0  0  0  0  0  0  0  0  0  0
    0.6071   -1.6605   -0.2452 C   0  0  0  0  0  0  0  0  0  0  0  0
   -1.5314    1.9967    0.8533 C   0  0  0  0  0  0  0  0  0  0  0  0
   -1.5745   -0.4190    0.1043 C   0  0  0  0  0  0  0  0  0  0  0  0
   -2.3844    0.8015    0.4292 C   0  0  0  0  0  0  0  0  0  0  0  0
    2.9500   -2.5895    0.0030 C   0  0  0  0  0  0  0  0  0  0  0  0
   -0.7807    2.5274   -1.4877 C   0  0  0  0  0  0  0  0  0  0  0  0
    0.4685    3.4420    0.4523 C   0  0  0  0  0  0  0  0  0  0  0  0
   -2.3380   -1.6744    0.0189 C   0  0  0  0  0  0  0  0  0  0  0  0
   -2.8811   -2.0763   -1.3256 C   0  0  0  0  0  0  0  0  0  0  0  0
    0.8041    0.8277    2.1865 H   0  0  0  0  0  0  0  0  0  0  0  0
    2.1655    1.5721    1.3614 H   0  0  0  0  0  0  0  0  0  0  0  0
    2.2074    1.7613   -1.2440 H   0  0  0  0  0  0  0  0  0  0  0  0
    1.0756    0.7763   -2.1599 H   0  0  0  0  0  0  0  0  0  0  0  0
    3.2651   -0.3736    1.5896 H   0  0  0  0  0  0  0  0  0  0  0  0
    1.8221   -1.1988    2.1578 H   0  0  0  0  0  0  0  0  0  0  0  0
    2.5928   -0.8706   -2.0841 H   0  0  0  0  0  0  0  0  0  0  0  0
    3.5799   -0.0098   -0.9140 H   0  0  0  0  0  0  0  0  0  0  0  0
    0.2863   -2.4296    0.4682 H   0  0  0  0  0  0  0  0  0  0  0  0
    0.4719   -2.0624   -1.2571 H   0  0  0  0  0  0  0  0  0  0  0  0
   -2.1593    2.8973    0.8514 H   0  0  0  0  0  0  0  0  0  0  0  0
   -1.2154    1.8569    1.8951 H   0  0  0  0  0  0  0  0  0  0  0  0
   -2.9919    1.0685   -0.4442 H   0  0  0  0  0  0  0  0  0  0  0  0
   -3.0883    0.5770    1.2403 H   0  0  0  0  0  0  0  0  0  0  0  0
    2.6402   -3.2699    0.8039 H   0  0  0  0  0  0  0  0  0  0  0  0
    2.8615   -3.1288   -0.9465 H   0  0  0  0  0  0  0  0  0  0  0  0
    4.0088   -2.3535    0.1564 H   0  0  0  0  0  0  0  0  0  0  0  0
   -1.2304    1.6628   -1.9860 H   0  0  0  0  0  0  0  0  0  0  0  0
   -1.5331    3.3249   -1.4705 H   0  0  0  0  0  0  0  0  0  0  0  0
    0.0410    2.8830   -2.1193 H   0  0  0  0  0  0  0  0  0  0  0  0
   -0.1446    4.3447    0.3433 H   0  0  0  0  0  0  0  0  0  0  0  0
    0.7237    3.3622    1.5141 H   0  0  0  0  0  0  0  0  0  0  0  0
    1.3936    3.6068   -0.1091 H   0  0  0  0  0  0  0  0  0  0  0  0
   -2.6180   -1.3406   -2.0910 H   0  0  0  0  0  0  0  0  0  0  0  0
   -3.9704   -2.1440   -1.2680 H   0  0  0  0  0  0  0  0  0  0  0  0
   -2.4568   -3.0425   -1.6106 H   0  0  0  0  0  0  0  0  0  0  0  0
  1 17  2  0  0  0  0
  2  4  1  0  0  0  0
  2  5  1  0  0  0  0
  2  6  1  0  0  0  0
  2  7  1  0  0  0  0
  3  8  1  0  0  0  0
  3  9  1  0  0  0  0
  3 10  1  0  0  0  0
  3 14  1  0  0  0  0
  4 11  1  0  0  0  0
  4 15  1  0  0  0  0
  4 16  1  0  0  0  0
  5  8  1  0  0  0  0
  5 19  1  0  0  0  0
  5 20  1  0  0  0  0
  6  9  1  0  0  0  0
  6 21  1  0  0  0  0
  6 22  1  0  0  0  0
  7 10  1  0  0  0  0
  7 12  2  0  0  0  0
  8 23  1  0  0  0  0
  8 24  1  0  0  0  0
  9 25  1  0  0  0  0
  9 26  1  0  0  0  0
 10 27  1  0  0  0  0
 10 28  1  0  0  0  0
 11 13  1  0  0  0  0
 11 29  1  0  0  0  0
 11 30  1  0  0  0  0
 12 13  1  0  0  0  0
 12 17  1  0  0  0  0
 13 31  1  0  0  0  0
 13 32  1  0  0  0  0
 14 33  1  0  0  0  0
 14 34  1  0  0  0  0
 14 35  1  0  0  0  0
 15 36  1  0  0  0  0
 15 37  1  0  0  0  0
 15 38  1  0  0  0  0
 16 39  1  0  0  0  0
 16 40  1  0  0  0  0
 16 41  1  0  0  0  0
 17 18  1  0  0  0  0
 18 42  1  0  0  0  0
 18 43  1  0  0  0  0
 18 44  1  0  0  0  0
M  END
> <PUBCHEM_COMPOUND_CID>
122549

> <PUBCHEM_CONFORMER_RMSD>
0.6

> <PUBCHEM_CONFORMER_DIVERSEORDER>
1
3
2
4

> <PUBCHEM_MMFF94_PARTIAL_CHARGES>
8
1 -0.57
10 0.14
12 -0.12
13 0.14
17 0.49
18 0.06
2 0.14
7 -0.28

> <PUBCHEM_EFFECTIVE_ROTOR_COUNT>
2.6

> <PUBCHEM_PHARMACOPHORE_FEATURES>
4
1 1 acceptor
3 4 15 16 hydrophobe
6 2 4 7 11 12 13 rings
8 2 3 5 6 7 8 9 10 rings

> <PUBCHEM_HEAVY_ATOM_COUNT>
18

> <PUBCHEM_ATOM_DEF_STEREO_COUNT>
0

> <PUBCHEM_ATOM_UDEF_STEREO_COUNT>
0

> <PUBCHEM_BOND_DEF_STEREO_COUNT>
0

> <PUBCHEM_BOND_UDEF_STEREO_COUNT>
0

> <PUBCHEM_ISOTOPIC_ATOM_COUNT>
0

> <PUBCHEM_COMPONENT_COUNT>
1

> <PUBCHEM_CACTVS_TAUTO_COUNT>
5

> <PUBCHEM_CONFORMER_ID>
0001DEB500000001

> <PUBCHEM_MMFF94_ENERGY>
62.7533

> <PUBCHEM_FEATURE_SELFOVERLAP>
20.315

> <PUBCHEM_SHAPE_FINGERPRINT>
10967382 1 18411144597384589817
11067466 332 17394457235188462667
12173636 292 17619354204214457308
12326174 3 17831008392442142713
12423570 1 8626754960097557605
12553582 1 18340214093055105591
13140716 1 18338522945292003346
13538477 17 18189628145947395718
14181834 199 17761189404220694373
14817 1 16743890244970563073
15001771 113 18409175402065978817
15309172 13 17617954533937724152
15852999 172 17690246371386490308
16752209 62 17900814955702940765
16945 1 18051695447482911124
19868273 325 18409733954125908759
20510252 161 17766559049770496768
20559304 39 18265898153783667923
20645477 70 17761765566027086415
21452121 199 18336254713292217498
21501502 16 18340768139804462306
22112679 90 18338811051676762360
2334 1 18410861000652064239
23388829 49 17984125235138648507
23419403 2 17105875955898019252
23557571 272 18342740668159950916
23559900 14 17624408685491619694
238 59 17041173205813560215
257057 1 18339066155660082519
2748010 2 18342168990221125814
3060560 45 17761767764363961983
34934 24 18410022034715081805
427121 178 15906057828061656505
465052 167 17609533478166828145
6338986 31 18270104820894645319
6992083 37 17538297137467246406
7364860 26 17980767348049561537
81228 2 18338226064472992395
90525 40 17469333534463100420

> <PUBCHEM_SHAPE_MULTIPOLES>
364.56
4.01
3.57
1.29
1.71
0.36
-0.14
-2.46
-0.02
-2.23
-0.19
0.05
0.2
-0.13

> <PUBCHEM_SHAPE_SELFOVERLAP>
776.641

> <PUBCHEM_SHAPE_VOLUME>
201.4

> <PUBCHEM_COORDINATE_TYPE>
2
5
10

$$$$
