122941
  -OEChem-11232109433D

 20 20  0     0  0  0  0  0  0999 V2000
   -1.4209    0.4158   -0.0037 O   0  0  0  0  0  0  0  0  0  0  0  0
    0.1218   -1.3110   -0.0010 N   0  0  0  0  0  0  0  0  0  0  0  0
    2.2049    0.5669    0.0021 N   0  0  0  0  0  0  0  0  0  0  0  0
   -0.1138    0.0161   -0.0010 C   0  0  0  0  0  0  0  0  0  0  0  0
    0.9094    0.9385    0.0005 C   0  0  0  0  0  0  0  0  0  0  0  0
   -2.4079   -0.6110   -0.0051 C   0  0  0  0  0  0  0  0  0  0  0  0
    0.6302    2.4022   -0.0012 C   0  0  0  0  0  0  0  0  0  0  0  0
   -3.7814    0.0254    0.0071 C   0  0  0  0  0  0  0  0  0  0  0  0
    1.4172   -1.6826    0.0003 C   0  0  0  0  0  0  0  0  0  0  0  0
    2.4405   -0.7603    0.0019 C   0  0  0  0  0  0  0  0  0  0  0  0
   -2.3075   -1.2288   -0.9055 H   0  0  0  0  0  0  0  0  0  0  0  0
   -2.2992   -1.2411    0.8859 H   0  0  0  0  0  0  0  0  0  0  0  0
    0.0586    2.6838    0.8889 H   0  0  0  0  0  0  0  0  0  0  0  0
    1.5607    2.9796    0.0015 H   0  0  0  0  0  0  0  0  0  0  0  0
    0.0643    2.6827   -0.8952 H   0  0  0  0  0  0  0  0  0  0  0  0
   -4.5658   -0.7365    0.0061 H   0  0  0  0  0  0  0  0  0  0  0  0
   -3.9051    0.6588    0.8918 H   0  0  0  0  0  0  0  0  0  0  0  0
   -3.9149    0.6712   -0.8671 H   0  0  0  0  0  0  0  0  0  0  0  0
    1.6072   -2.7487    0.0002 H   0  0  0  0  0  0  0  0  0  0  0  0
    3.4812   -1.0596    0.0030 H   0  0  0  0  0  0  0  0  0  0  0  0
  1  4  1  0  0  0  0
  1  6  1  0  0  0  0
  2  4  2  0  0  0  0
  2  9  1  0  0  0  0
  3  5  2  0  0  0  0
  3 10  1  0  0  0  0
  4  5  1  0  0  0  0
  5  7  1  0  0  0  0
  6  8  1  0  0  0  0
  6 11  1  0  0  0  0
  6 12  1  0  0  0  0
  7 13  1  0  0  0  0
  7 14  1  0  0  0  0
  7 15  1  0  0  0  0
  8 16  1  0  0  0  0
  8 17  1  0  0  0  0
  8 18  1  0  0  0  0
  9 10  2  0  0  0  0
  9 19  1  0  0  0  0
 10 20  1  0  0  0  0
M  END
> <PUBCHEM_COMPOUND_CID>
122941

> <PUBCHEM_CONFORMER_RMSD>
0.4

> <PUBCHEM_CONFORMER_DIVERSEORDER>
1
13
3
12
2
14
15
6
10
11
7
9
8
5
4

> <PUBCHEM_MMFF94_PARTIAL_CHARGES>
11
1 -0.36
10 0.16
19 0.15
2 -0.62
20 0.15
3 -0.62
4 0.39
5 0.17
6 0.28
7 0.14
9 0.16

> <PUBCHEM_EFFECTIVE_ROTOR_COUNT>
2

> <PUBCHEM_PHARMACOPHORE_FEATURES>
2
1 3 acceptor
6 2 3 4 5 9 10 rings

> <PUBCHEM_HEAVY_ATOM_COUNT>
10

> <PUBCHEM_ATOM_DEF_STEREO_COUNT>
0

> <PUBCHEM_ATOM_UDEF_STEREO_COUNT>
0

> <PUBCHEM_BOND_DEF_STEREO_COUNT>
0

> <PUBCHEM_BOND_UDEF_STEREO_COUNT>
0

> <PUBCHEM_ISOTOPIC_ATOM_COUNT>
0

> <PUBCHEM_COMPONENT_COUNT>
1

> <PUBCHEM_CACTVS_TAUTO_COUNT>
1

> <PUBCHEM_CONFORMER_ID>
0001E03D00000001

> <PUBCHEM_MMFF94_ENERGY>
24.7594

> <PUBCHEM_FEATURE_SELFOVERLAP>
10.148

> <PUBCHEM_SHAPE_FINGERPRINT>
10219947 1 18412545405236851699
14325111 11 18338797926625983875
16945 1 18410574019521784486
193761 8 17762337324662330950
20201158 50 18334575724608169923
20871998 22 18127134065419921406
21040471 1 17834394897040910020
23402655 69 18340475695903349229
23552423 10 18044666291095183822
2748010 2 18194958552438176388
29004967 10 18409168787911366578

> <PUBCHEM_SHAPE_MULTIPOLES>
189.96
4.32
1.9
0.59
4.54
0.83
0
-0.77
-0.01
-1.03
0
0.01
0
0

> <PUBCHEM_SHAPE_SELFOVERLAP>
382.827

> <PUBCHEM_SHAPE_VOLUME>
111.9

> <PUBCHEM_COORDINATE_TYPE>
2
5
10

$$$$
