12304610
  -OEChem-11232109113D

 29 30  0     1  0  0  0  0  0999 V2000
   -1.6475   -1.4749   -0.9917 O   0  0  0  0  0  0  0  0  0  0  0  0
    0.6465   -0.0772    0.4493 C   0  0  1  0  0  0  0  0  0  0  0  0
   -0.3005    1.0380    0.1201 C   0  0  2  0  0  0  0  0  0  0  0  0
    0.6864    1.1975    1.2434 C   0  0  0  0  0  0  0  0  0  0  0  0
   -1.7082    0.5485    0.3784 C   0  0  2  0  0  0  0  0  0  0  0  0
   -0.1605   -1.2647    0.8995 C   0  0  0  0  0  0  0  0  0  0  0  0
   -1.5671   -0.9894    0.3453 C   0  0  2  0  0  0  0  0  0  0  0  0
    1.7699   -0.3517   -0.4890 C   0  0  0  0  0  0  0  0  0  0  0  0
   -2.7156    1.1090   -0.6140 C   0  0  0  0  0  0  0  0  0  0  0  0
    1.8768    0.7232   -1.5876 C   0  0  0  0  0  0  0  0  0  0  0  0
    3.1198   -0.4583    0.2462 C   0  0  0  0  0  0  0  0  0  0  0  0
   -0.2109    1.7172   -0.7101 H   0  0  0  0  0  0  0  0  0  0  0  0
    1.4976    1.9005    1.0989 H   0  0  0  0  0  0  0  0  0  0  0  0
    0.3156    1.1819    2.2620 H   0  0  0  0  0  0  0  0  0  0  0  0
   -2.0028    0.8560    1.3904 H   0  0  0  0  0  0  0  0  0  0  0  0
   -0.1835   -1.2969    1.9951 H   0  0  0  0  0  0  0  0  0  0  0  0
    0.2424   -2.2161    0.5376 H   0  0  0  0  0  0  0  0  0  0  0  0
   -2.3494   -1.4835    0.9299 H   0  0  0  0  0  0  0  0  0  0  0  0
    1.5970   -1.3065   -1.0021 H   0  0  0  0  0  0  0  0  0  0  0  0
   -3.7084    0.6807   -0.4435 H   0  0  0  0  0  0  0  0  0  0  0  0
   -2.7911    2.1966   -0.5071 H   0  0  0  0  0  0  0  0  0  0  0  0
   -2.4249    0.9071   -1.6505 H   0  0  0  0  0  0  0  0  0  0  0  0
    2.0548    1.7268   -1.1883 H   0  0  0  0  0  0  0  0  0  0  0  0
    2.7205    0.4921   -2.2490 H   0  0  0  0  0  0  0  0  0  0  0  0
    0.9851    0.7377   -2.2236 H   0  0  0  0  0  0  0  0  0  0  0  0
    3.4072    0.4911    0.7097 H   0  0  0  0  0  0  0  0  0  0  0  0
    3.9156   -0.7492   -0.4476 H   0  0  0  0  0  0  0  0  0  0  0  0
    3.0672   -1.2141    1.0372 H   0  0  0  0  0  0  0  0  0  0  0  0
   -1.5187   -2.4381   -0.9605 H   0  0  0  0  0  0  0  0  0  0  0  0
  1  7  1  0  0  0  0
  1 29  1  0  0  0  0
  2  3  1  0  0  0  0
  2  4  1  0  0  0  0
  2  6  1  0  0  0  0
  2  8  1  0  0  0  0
  3  4  1  0  0  0  0
  3  5  1  0  0  0  0
  3 12  1  0  0  0  0
  4 13  1  0  0  0  0
  4 14  1  0  0  0  0
  5  7  1  0  0  0  0
  5  9  1  0  0  0  0
  5 15  1  0  0  0  0
  6  7  1  0  0  0  0
  6 16  1  0  0  0  0
  6 17  1  0  0  0  0
  7 18  1  0  0  0  0
  8 10  1  0  0  0  0
  8 11  1  0  0  0  0
  8 19  1  0  0  0  0
  9 20  1  0  0  0  0
  9 21  1  0  0  0  0
  9 22  1  0  0  0  0
 10 23  1  0  0  0  0
 10 24  1  0  0  0  0
 10 25  1  0  0  0  0
 11 26  1  0  0  0  0
 11 27  1  0  0  0  0
 11 28  1  0  0  0  0
M  END
> <PUBCHEM_COMPOUND_CID>
12304610

> <PUBCHEM_CONFORMER_RMSD>
0.4

> <PUBCHEM_CONFORMER_DIVERSEORDER>
1
6
2
4
5
3

> <PUBCHEM_MMFF94_PARTIAL_CHARGES>
12
1 -0.68
12 0.1
13 0.1
14 0.1
2 -0.19
29 0.4
3 -0.19
4 -0.2
5 0.09
6 0.09
7 0.28
8 0.09

> <PUBCHEM_EFFECTIVE_ROTOR_COUNT>
1.8

> <PUBCHEM_PHARMACOPHORE_FEATURES>
4
1 1 acceptor
1 1 donor
3 8 10 11 hydrophobe
6 2 3 4 5 6 7 rings

> <PUBCHEM_HEAVY_ATOM_COUNT>
11

> <PUBCHEM_ATOM_DEF_STEREO_COUNT>
4

> <PUBCHEM_ATOM_UDEF_STEREO_COUNT>
0

> <PUBCHEM_BOND_DEF_STEREO_COUNT>
0

> <PUBCHEM_BOND_UDEF_STEREO_COUNT>
0

> <PUBCHEM_ISOTOPIC_ATOM_COUNT>
0

> <PUBCHEM_COMPONENT_COUNT>
1

> <PUBCHEM_CACTVS_TAUTO_COUNT>
1

> <PUBCHEM_CONFORMER_ID>
00BBC0E200000001

> <PUBCHEM_MMFF94_ENERGY>
32.0652

> <PUBCHEM_FEATURE_SELFOVERLAP>
20.297

> <PUBCHEM_SHAPE_FINGERPRINT>
12138202 97 18201147789279711068
12423570 1 16958126632493843968
12716758 59 18271247114554175274
13024252 1 17676786321732505386
137420 1 13364972463274881832
15310529 11 17969241068755215390
16945 1 18202010888711931944
20653085 51 17168445803906853508
207724 885 17313381184723122986
21040471 1 18262508213506391489
23402539 116 17702085998378027885
23552423 10 18113341924757605626
23559900 14 18343016654632901978
2748010 2 18198613522483855337
29004967 10 16773803592928328162
369184 2 18201723929352056810
5084963 1 18260268551148835417
528886 8 17676205736659171352
68250623 7 17843097437111727072

> <PUBCHEM_SHAPE_MULTIPOLES>
220.51
3.6
1.46
1.23
0.71
0.17
0.11
-0.3
0.8
-0.48
0.07
0.25
-0.2
-0.24

> <PUBCHEM_SHAPE_SELFOVERLAP>
451.3

> <PUBCHEM_SHAPE_VOLUME>
132.2

> <PUBCHEM_COORDINATE_TYPE>
2
5
10

$$$$
