12304196
  -OEChem-11232108523D

 42 43  0     1  0  0  0  0  0999 V2000
   -2.9755   -0.7769    1.2954 O   0  0  0  0  0  0  0  0  0  0  0  0
    1.2127    1.0688   -0.1269 C   0  0  1  0  0  0  0  0  0  0  0  0
    0.8301   -0.3767    0.3158 C   0  0  1  0  0  0  0  0  0  0  0  0
   -1.5795    0.3124   -0.3210 C   0  0  2  0  0  0  0  0  0  0  0  0
   -0.5170   -0.8069   -0.3070 C   0  0  0  0  0  0  0  0  0  0  0  0
    0.1379    2.0695    0.3825 C   0  0  0  0  0  0  0  0  0  0  0  0
   -1.2368    1.4425    0.6519 C   0  0  0  0  0  0  0  0  0  0  0  0
    2.5839    1.4198    0.5007 C   0  0  0  0  0  0  0  0  0  0  0  0
   -2.9704   -0.2537   -0.0317 C   0  0  0  0  0  0  0  0  0  0  0  0
    1.9609   -1.3845    0.1368 C   0  0  0  0  0  0  0  0  0  0  0  0
    1.3280    1.2025   -1.6686 C   0  0  0  0  0  0  0  0  0  0  0  0
    3.6896    0.4455    0.0848 C   0  0  0  0  0  0  0  0  0  0  0  0
    3.2421   -0.9851    0.0329 C   0  0  0  0  0  0  0  0  0  0  0  0
   -3.3074   -1.3804   -1.0043 C   0  0  0  0  0  0  0  0  0  0  0  0
   -4.0190    0.8519   -0.0988 C   0  0  0  0  0  0  0  0  0  0  0  0
    1.6204   -2.8487    0.1575 C   0  0  0  0  0  0  0  0  0  0  0  0
    0.6654   -0.3506    1.4053 H   0  0  0  0  0  0  0  0  0  0  0  0
   -1.6001    0.7434   -1.3308 H   0  0  0  0  0  0  0  0  0  0  0  0
   -0.3653   -1.1606   -1.3354 H   0  0  0  0  0  0  0  0  0  0  0  0
   -0.8697   -1.6749    0.2629 H   0  0  0  0  0  0  0  0  0  0  0  0
    0.0220    2.8893   -0.3385 H   0  0  0  0  0  0  0  0  0  0  0  0
    0.4672    2.5486    1.3137 H   0  0  0  0  0  0  0  0  0  0  0  0
   -1.2524    1.0700    1.6842 H   0  0  0  0  0  0  0  0  0  0  0  0
   -1.9672    2.2565    0.6080 H   0  0  0  0  0  0  0  0  0  0  0  0
    2.4971    1.3983    1.5960 H   0  0  0  0  0  0  0  0  0  0  0  0
    2.8826    2.4425    0.2379 H   0  0  0  0  0  0  0  0  0  0  0  0
    1.7433    2.1803   -1.9404 H   0  0  0  0  0  0  0  0  0  0  0  0
    1.9765    0.4388   -2.1085 H   0  0  0  0  0  0  0  0  0  0  0  0
    0.3606    1.1217   -2.1702 H   0  0  0  0  0  0  0  0  0  0  0  0
    4.5246    0.5365    0.7893 H   0  0  0  0  0  0  0  0  0  0  0  0
    4.0810    0.7234   -0.9010 H   0  0  0  0  0  0  0  0  0  0  0  0
    4.0295   -1.7255   -0.0852 H   0  0  0  0  0  0  0  0  0  0  0  0
   -4.3334   -1.7326   -0.8422 H   0  0  0  0  0  0  0  0  0  0  0  0
   -3.2277   -1.0517   -2.0460 H   0  0  0  0  0  0  0  0  0  0  0  0
   -2.6767   -2.2637   -0.8641 H   0  0  0  0  0  0  0  0  0  0  0  0
   -3.9628    1.5362    0.7540 H   0  0  0  0  0  0  0  0  0  0  0  0
   -5.0279    0.4238   -0.0470 H   0  0  0  0  0  0  0  0  0  0  0  0
   -3.9520    1.4247   -1.0296 H   0  0  0  0  0  0  0  0  0  0  0  0
    1.0236   -3.1205   -0.7184 H   0  0  0  0  0  0  0  0  0  0  0  0
    1.0541   -3.0942    1.0618 H   0  0  0  0  0  0  0  0  0  0  0  0
    2.5151   -3.4807    0.1521 H   0  0  0  0  0  0  0  0  0  0  0  0
   -3.8603   -1.1400    1.4719 H   0  0  0  0  0  0  0  0  0  0  0  0
  1  9  1  0  0  0  0
  1 42  1  0  0  0  0
  2  3  1  0  0  0  0
  2  6  1  0  0  0  0
  2  8  1  0  0  0  0
  2 11  1  0  0  0  0
  3  5  1  0  0  0  0
  3 10  1  0  0  0  0
  3 17  1  0  0  0  0
  4  5  1  0  0  0  0
  4  7  1  0  0  0  0
  4  9  1  0  0  0  0
  4 18  1  0  0  0  0
  5 19  1  0  0  0  0
  5 20  1  0  0  0  0
  6  7  1  0  0  0  0
  6 21  1  0  0  0  0
  6 22  1  0  0  0  0
  7 23  1  0  0  0  0
  7 24  1  0  0  0  0
  8 12  1  0  0  0  0
  8 25  1  0  0  0  0
  8 26  1  0  0  0  0
  9 14  1  0  0  0  0
  9 15  1  0  0  0  0
 10 13  2  0  0  0  0
 10 16  1  0  0  0  0
 11 27  1  0  0  0  0
 11 28  1  0  0  0  0
 11 29  1  0  0  0  0
 12 13  1  0  0  0  0
 12 30  1  0  0  0  0
 12 31  1  0  0  0  0
 13 32  1  0  0  0  0
 14 33  1  0  0  0  0
 14 34  1  0  0  0  0
 14 35  1  0  0  0  0
 15 36  1  0  0  0  0
 15 37  1  0  0  0  0
 15 38  1  0  0  0  0
 16 39  1  0  0  0  0
 16 40  1  0  0  0  0
 16 41  1  0  0  0  0
M  END
> <PUBCHEM_COMPOUND_CID>
12304196

> <PUBCHEM_CONFORMER_RMSD>
0.6

> <PUBCHEM_CONFORMER_DIVERSEORDER>
1
4
2
3

> <PUBCHEM_MMFF94_PARTIAL_CHARGES>
9
1 -0.68
10 -0.28
12 0.14
13 -0.29
16 0.14
3 0.14
32 0.15
42 0.4
9 0.28

> <PUBCHEM_EFFECTIVE_ROTOR_COUNT>
2.2

> <PUBCHEM_PHARMACOPHORE_FEATURES>
5
1 1 acceptor
1 1 donor
3 9 14 15 hydrophobe
6 2 3 4 5 6 7 rings
6 2 3 8 10 12 13 rings

> <PUBCHEM_HEAVY_ATOM_COUNT>
16

> <PUBCHEM_ATOM_DEF_STEREO_COUNT>
3

> <PUBCHEM_ATOM_UDEF_STEREO_COUNT>
0

> <PUBCHEM_BOND_DEF_STEREO_COUNT>
0

> <PUBCHEM_BOND_UDEF_STEREO_COUNT>
0

> <PUBCHEM_ISOTOPIC_ATOM_COUNT>
0

> <PUBCHEM_COMPONENT_COUNT>
1

> <PUBCHEM_CACTVS_TAUTO_COUNT>
1

> <PUBCHEM_CONFORMER_ID>
00BBBF4400000001

> <PUBCHEM_MMFF94_ENERGY>
49.6437

> <PUBCHEM_FEATURE_SELFOVERLAP>
25.389

> <PUBCHEM_SHAPE_FINGERPRINT>
10062212 137 18410565193664873035
10219947 1 18335417997754138876
10618630 7 18411136905224841164
10922523 26 18187079508291227293
10967382 1 18411980234832902066
10980938 120 18411415124616393394
11132069 177 18272642455018421538
11471102 20 18410849954027658644
11578080 2 17415244361568831609
11769659 78 18411130312376136770
11806522 49 18411975897058325470
13132413 78 18343579663650547269
13140716 1 18267017435256684050
13221675 6 18342739606881165518
13571099 22 18412539899320951853
14251717 144 18338789113015768358
14350558 41 18334018289049787285
14787075 74 17700119195699222424
15196674 1 18412259549541198642
15375358 24 18261105266570466571
15375462 189 18342739637062026827
15442244 35 18052819139428358698
15501101 241 18335415751575953020
15536298 74 18272649039366751496
15757776 16 18187639176915956034
15775835 57 18272934950765169013
16945 1 18409449227864340212
18186145 218 17167858686193627841
200 152 18272360980147199399
20201158 50 18333449833064369691
20559304 39 18341615884348558224
20645476 183 17826528943753507692
20645477 70 18342734079300668375
21267235 1 18341337733777131775
21501502 16 18195529186367743032
22445834 79 18341615854299676531
2334 1 17834957846946748162
23388829 49 18412825772122517060
23402539 116 18201430407124021132
23463225 33 18340768156615014381
23559900 14 18269827623979278242
2748010 2 18195240010498742436
296302 2 18334010614006578324
3312278 4 18412545414074634785
34934 24 18341886364430602113
5104073 3 18411697690398662731
53655031 270 18341892974475039008
581208 293 18411411847746153232
7364860 26 18271244924295089958
81228 2 17752770130091462268
8809292 202 18187088346975336835

> <PUBCHEM_SHAPE_MULTIPOLES>
323.4
6.19
2.28
1
3
0.78
-0.23
0.76
0.06
-0.95
0.12
0.19
-0.14
-0.35

> <PUBCHEM_SHAPE_SELFOVERLAP>
661.26

> <PUBCHEM_SHAPE_VOLUME>
185.8

> <PUBCHEM_COORDINATE_TYPE>
2
5
10

$$$$
