12315259
  -OEChem-11232109423D

 40 41  0     1  0  0  0  0  0999 V2000
    5.6403   -0.4020   -0.0531 O   0  0  0  0  0  0  0  0  0  0  0  0
   -1.6526   -0.6365   -1.0721 C   0  0  2  0  0  0  0  0  0  0  0  0
   -1.3812    0.7087   -0.3187 C   0  0  1  0  0  0  0  0  0  0  0  0
   -3.2711   -0.6454    0.4682 C   0  0  2  0  0  0  0  0  0  0  0  0
   -3.1874   -0.7238   -1.0547 C   0  0  0  0  0  0  0  0  0  0  0  0
   -1.3116   -1.8706   -0.2058 C   0  0  0  0  0  0  0  0  0  0  0  0
   -2.4918    0.6309    0.7237 C   0  0  0  0  0  0  0  0  0  0  0  0
   -2.3878   -1.8298    0.8951 C   0  0  0  0  0  0  0  0  0  0  0  0
    0.0176    0.7847    0.3088 C   0  0  0  0  0  0  0  0  0  0  0  0
   -1.5612    1.9122   -1.2621 C   0  0  0  0  0  0  0  0  0  0  0  0
   -2.7746    1.5274    1.6754 C   0  0  0  0  0  0  0  0  0  0  0  0
    1.0906    0.9050   -0.7656 C   0  0  0  0  0  0  0  0  0  0  0  0
    2.4570    0.9881   -0.1465 C   0  0  0  0  0  0  0  0  0  0  0  0
    3.2908   -0.0279    0.1485 C   0  0  0  0  0  0  0  0  0  0  0  0
    4.6370    0.1286    0.8024 C   0  0  0  0  0  0  0  0  0  0  0  0
    2.8860   -1.4497   -0.1434 C   0  0  0  0  0  0  0  0  0  0  0  0
   -1.2142   -0.6855   -2.0722 H   0  0  0  0  0  0  0  0  0  0  0  0
   -4.2810   -0.6602    0.8823 H   0  0  0  0  0  0  0  0  0  0  0  0
   -3.5684   -1.6696   -1.4568 H   0  0  0  0  0  0  0  0  0  0  0  0
   -3.6879    0.1029   -1.5684 H   0  0  0  0  0  0  0  0  0  0  0  0
   -0.2991   -1.8915    0.1967 H   0  0  0  0  0  0  0  0  0  0  0  0
   -1.4331   -2.7857   -0.7991 H   0  0  0  0  0  0  0  0  0  0  0  0
   -2.9578   -2.7656    0.8985 H   0  0  0  0  0  0  0  0  0  0  0  0
   -1.9487   -1.6921    1.8891 H   0  0  0  0  0  0  0  0  0  0  0  0
    0.2202   -0.0528    0.9841 H   0  0  0  0  0  0  0  0  0  0  0  0
    0.0767    1.6758    0.9509 H   0  0  0  0  0  0  0  0  0  0  0  0
   -1.2101    2.8426   -0.7999 H   0  0  0  0  0  0  0  0  0  0  0  0
   -1.0333    1.7749   -2.2118 H   0  0  0  0  0  0  0  0  0  0  0  0
   -2.6147    2.0764   -1.5170 H   0  0  0  0  0  0  0  0  0  0  0  0
   -2.1855    2.4304    1.7903 H   0  0  0  0  0  0  0  0  0  0  0  0
   -3.6038    1.3742    2.3573 H   0  0  0  0  0  0  0  0  0  0  0  0
    1.0330    0.0885   -1.4915 H   0  0  0  0  0  0  0  0  0  0  0  0
    0.9747    1.8258   -1.3481 H   0  0  0  0  0  0  0  0  0  0  0  0
    2.7830    1.9962    0.1065 H   0  0  0  0  0  0  0  0  0  0  0  0
    4.6669   -0.4155    1.7516 H   0  0  0  0  0  0  0  0  0  0  0  0
    4.8767    1.1770    1.0076 H   0  0  0  0  0  0  0  0  0  0  0  0
    3.5591   -1.8875   -0.8880 H   0  0  0  0  0  0  0  0  0  0  0  0
    1.8703   -1.5692   -0.5198 H   0  0  0  0  0  0  0  0  0  0  0  0
    2.9544   -2.0491    0.7713 H   0  0  0  0  0  0  0  0  0  0  0  0
    5.6266    0.1123   -0.8786 H   0  0  0  0  0  0  0  0  0  0  0  0
  1 15  1  0  0  0  0
  1 40  1  0  0  0  0
  2  3  1  0  0  0  0
  2  5  1  0  0  0  0
  2  6  1  0  0  0  0
  2 17  1  0  0  0  0
  3  7  1  0  0  0  0
  3  9  1  0  0  0  0
  3 10  1  0  0  0  0
  4  5  1  0  0  0  0
  4  7  1  0  0  0  0
  4  8  1  0  0  0  0
  4 18  1  0  0  0  0
  5 19  1  0  0  0  0
  5 20  1  0  0  0  0
  6  8  1  0  0  0  0
  6 21  1  0  0  0  0
  6 22  1  0  0  0  0
  7 11  2  0  0  0  0
  8 23  1  0  0  0  0
  8 24  1  0  0  0  0
  9 12  1  0  0  0  0
  9 25  1  0  0  0  0
  9 26  1  0  0  0  0
 10 27  1  0  0  0  0
 10 28  1  0  0  0  0
 10 29  1  0  0  0  0
 11 30  1  0  0  0  0
 11 31  1  0  0  0  0
 12 13  1  0  0  0  0
 12 32  1  0  0  0  0
 12 33  1  0  0  0  0
 13 14  2  0  0  0  0
 13 34  1  0  0  0  0
 14 15  1  0  0  0  0
 14 16  1  0  0  0  0
 15 35  1  0  0  0  0
 15 36  1  0  0  0  0
 16 37  1  0  0  0  0
 16 38  1  0  0  0  0
 16 39  1  0  0  0  0
M  END
> <PUBCHEM_COMPOUND_CID>
12315259

> <PUBCHEM_CONFORMER_RMSD>
0.6

> <PUBCHEM_CONFORMER_DIVERSEORDER>
2
9
12
6
14
3
8
10
7
11
5
1
13
15
4

> <PUBCHEM_MMFF94_PARTIAL_CHARGES>
14
1 -0.68
11 -0.3
12 0.14
13 -0.29
14 -0.28
15 0.42
16 0.14
3 0.14
30 0.15
31 0.15
34 0.15
4 0.14
40 0.4
7 -0.28

> <PUBCHEM_EFFECTIVE_ROTOR_COUNT>
4.8

> <PUBCHEM_PHARMACOPHORE_FEATURES>
4
1 1 acceptor
1 1 donor
1 16 hydrophobe
7 2 3 4 5 6 7 8 rings

> <PUBCHEM_HEAVY_ATOM_COUNT>
16

> <PUBCHEM_ATOM_DEF_STEREO_COUNT>
3

> <PUBCHEM_ATOM_UDEF_STEREO_COUNT>
0

> <PUBCHEM_BOND_DEF_STEREO_COUNT>
1

> <PUBCHEM_BOND_UDEF_STEREO_COUNT>
0

> <PUBCHEM_ISOTOPIC_ATOM_COUNT>
0

> <PUBCHEM_COMPONENT_COUNT>
1

> <PUBCHEM_CACTVS_TAUTO_COUNT>
1

> <PUBCHEM_CONFORMER_ID>
00BBEA7B00000002

> <PUBCHEM_MMFF94_ENERGY>
46.6979

> <PUBCHEM_FEATURE_SELFOVERLAP>
20.297

> <PUBCHEM_SHAPE_FINGERPRINT>
10366900 7 18059284461569186074
10680689 15 18040716940123506492
11046707 91 18334855039289923752
11315181 36 18202277014134974696
12251169 10 18272937136924758108
12553582 1 18260559917572645364
13024252 1 14779260921868165357
13214271 11 16845853481531592088
14289901 80 17703784855938995896
16945 1 18187378614129540061
200 152 18059843000395879365
20281475 54 18333733503381012268
22646028 28 18259984903071783610
2306618 200 18410287000133061629
23402539 116 17775559858493514477
23419403 2 12605390115946514701
23559900 14 18267572684128268424
27216 239 13542468691263129307
4921388 177 13334741219186326929
5104073 3 18341889685062704634
5706482 22 18201728319140923265
57265010 4 18273497862132573776
9709674 26 18411136926911044734

> <PUBCHEM_SHAPE_MULTIPOLES>
323.4
8.23
1.87
1.23
13.21
0.21
-0.1
1.4
-1.54
-1.16
0
-0.99
-0.33
-0.22

> <PUBCHEM_SHAPE_SELFOVERLAP>
667.04

> <PUBCHEM_SHAPE_VOLUME>
192.2

> <PUBCHEM_COORDINATE_TYPE>
2
5
10

$$$$
