123388
  -OEChem-11232109223D

 13 12  0     0  0  0  0  0  0999 V2000
   -0.1242   -1.1373   -0.4025 S   0  0  0  0  0  0  0  0  0  0  0  0
    1.1842    0.4104   -0.7523 S   0  0  0  0  0  0  0  0  0  0  0  0
   -1.3743   -0.3358    0.6307 C   0  0  0  0  0  0  0  0  0  0  0  0
   -2.0177    0.8201   -0.1116 C   0  0  0  0  0  0  0  0  0  0  0  0
    2.3320    0.2427    0.6357 C   0  0  0  0  0  0  0  0  0  0  0  0
   -2.1355   -1.0831    0.8768 H   0  0  0  0  0  0  0  0  0  0  0  0
   -0.9287   -0.0003    1.5724 H   0  0  0  0  0  0  0  0  0  0  0  0
   -1.3390    1.6660   -0.2528 H   0  0  0  0  0  0  0  0  0  0  0  0
   -2.4103    0.5135   -1.0873 H   0  0  0  0  0  0  0  0  0  0  0  0
   -2.8646    1.1973    0.4728 H   0  0  0  0  0  0  0  0  0  0  0  0
    1.8078    0.3679    1.5870 H   0  0  0  0  0  0  0  0  0  0  0  0
    3.0968    1.0205    0.5611 H   0  0  0  0  0  0  0  0  0  0  0  0
    2.8291   -0.7307    0.6092 H   0  0  0  0  0  0  0  0  0  0  0  0
  1  2  1  0  0  0  0
  1  3  1  0  0  0  0
  2  5  1  0  0  0  0
  3  4  1  0  0  0  0
  3  6  1  0  0  0  0
  3  7  1  0  0  0  0
  4  8  1  0  0  0  0
  4  9  1  0  0  0  0
  4 10  1  0  0  0  0
  5 11  1  0  0  0  0
  5 12  1  0  0  0  0
  5 13  1  0  0  0  0
M  END
> <PUBCHEM_COMPOUND_CID>
123388

> <PUBCHEM_CONFORMER_RMSD>
0.4

> <PUBCHEM_CONFORMER_DIVERSEORDER>
3
4
7
6
8
5
10
9
11
13
1
12
2

> <PUBCHEM_MMFF94_PARTIAL_CHARGES>
4
1 -0.23
2 -0.23
3 0.23
5 0.23

> <PUBCHEM_EFFECTIVE_ROTOR_COUNT>
2

> <PUBCHEM_PHARMACOPHORE_FEATURES>
2
1 4 hydrophobe
1 5 hydrophobe

> <PUBCHEM_HEAVY_ATOM_COUNT>
5

> <PUBCHEM_ATOM_DEF_STEREO_COUNT>
0

> <PUBCHEM_ATOM_UDEF_STEREO_COUNT>
0

> <PUBCHEM_BOND_DEF_STEREO_COUNT>
0

> <PUBCHEM_BOND_UDEF_STEREO_COUNT>
0

> <PUBCHEM_ISOTOPIC_ATOM_COUNT>
0

> <PUBCHEM_COMPONENT_COUNT>
1

> <PUBCHEM_CACTVS_TAUTO_COUNT>
1

> <PUBCHEM_CONFORMER_ID>
0001E1FC00000003

> <PUBCHEM_MMFF94_ENERGY>
-4.7858

> <PUBCHEM_FEATURE_SELFOVERLAP>
10.149

> <PUBCHEM_SHAPE_FINGERPRINT>
139733 1 18343591732566346495
14390081 3 17988362572669232313
20096714 4 18340497698250530015
20651381 17 18261097557294119869
21040471 1 18340497706771925382
23552449 1 17630315578732819334
24536 1 18261691301941455383
29004967 10 12252188484658582364

> <PUBCHEM_SHAPE_MULTIPOLES>
110.6
3.08
1.13
0.96
0.5
0.21
0.02
-0.92
-0.61
-0.27
0.13
0.23
-0.01
0.08

> <PUBCHEM_SHAPE_SELFOVERLAP>
161.499

> <PUBCHEM_SHAPE_VOLUME>
84.7

> <PUBCHEM_COORDINATE_TYPE>
2
5
10

$$$$
