12361768
  -OEChem-11232109083D

 22 23  0     0  0  0  0  0  0999 V2000
    2.9950   -0.3664    0.0000 O   0  0  0  0  0  0  0  0  0  0  0  0
    1.8678    1.6618   -0.0003 O   0  0  0  0  0  0  0  0  0  0  0  0
    0.7307   -0.3297    0.0000 N   0  0  0  0  0  0  0  0  0  0  0  0
   -0.5826    0.1526    0.0003 C   0  0  0  0  0  0  0  0  0  0  0  0
   -1.4433   -0.9536   -0.0001 C   0  0  0  0  0  0  0  0  0  0  0  0
   -0.6375   -2.1163    0.0001 C   0  0  0  0  0  0  0  0  0  0  0  0
    0.6743   -1.7127    0.0001 C   0  0  0  0  0  0  0  0  0  0  0  0
   -1.0964    1.4636    0.0005 C   0  0  0  0  0  0  0  0  0  0  0  0
   -2.8389   -0.7481   -0.0002 C   0  0  0  0  0  0  0  0  0  0  0  0
   -2.4836    1.6428    0.0000 C   0  0  0  0  0  0  0  0  0  0  0  0
   -3.3453    0.5532   -0.0002 C   0  0  0  0  0  0  0  0  0  0  0  0
    1.9046    0.4424   -0.0002 C   0  0  0  0  0  0  0  0  0  0  0  0
    4.2554    0.3106    0.0000 C   0  0  0  0  0  0  0  0  0  0  0  0
   -0.9758   -3.1434    0.0002 H   0  0  0  0  0  0  0  0  0  0  0  0
    1.5751   -2.3117    0.0001 H   0  0  0  0  0  0  0  0  0  0  0  0
   -0.4503    2.3343    0.0006 H   0  0  0  0  0  0  0  0  0  0  0  0
   -3.5214   -1.5936   -0.0003 H   0  0  0  0  0  0  0  0  0  0  0  0
   -2.8914    2.6504    0.0000 H   0  0  0  0  0  0  0  0  0  0  0  0
   -4.4200    0.7126   -0.0004 H   0  0  0  0  0  0  0  0  0  0  0  0
    5.0468   -0.4437    0.0002 H   0  0  0  0  0  0  0  0  0  0  0  0
    4.3554    0.9248    0.9000 H   0  0  0  0  0  0  0  0  0  0  0  0
    4.3555    0.9247   -0.9000 H   0  0  0  0  0  0  0  0  0  0  0  0
  1 12  1  0  0  0  0
  1 13  1  0  0  0  0
  2 12  2  0  0  0  0
  3  4  1  0  0  0  0
  3  7  1  0  0  0  0
  3 12  1  0  0  0  0
  4  5  1  0  0  0  0
  4  8  2  0  0  0  0
  5  6  1  0  0  0  0
  5  9  2  0  0  0  0
  6  7  2  0  0  0  0
  6 14  1  0  0  0  0
  7 15  1  0  0  0  0
  8 10  1  0  0  0  0
  8 16  1  0  0  0  0
  9 11  1  0  0  0  0
  9 17  1  0  0  0  0
 10 11  2  0  0  0  0
 10 18  1  0  0  0  0
 11 19  1  0  0  0  0
 13 20  1  0  0  0  0
 13 21  1  0  0  0  0
 13 22  1  0  0  0  0
M  END
> <PUBCHEM_COMPOUND_CID>
12361768

> <PUBCHEM_CONFORMER_RMSD>
0.6

> <PUBCHEM_CONFORMER_DIVERSEORDER>
1
3
2
4

> <PUBCHEM_MMFF94_PARTIAL_CHARGES>
18
1 -0.43
10 -0.15
11 -0.15
12 0.73
13 0.28
14 0.15
15 0.15
16 0.15
17 0.15
18 0.15
19 0.15
2 -0.57
3 0.29
4 -0.15
6 -0.15
7 -0.3
8 -0.15
9 -0.15

> <PUBCHEM_EFFECTIVE_ROTOR_COUNT>
2

> <PUBCHEM_PHARMACOPHORE_FEATURES>
3
1 2 acceptor
5 3 4 5 6 7 rings
6 4 5 8 9 10 11 rings

> <PUBCHEM_HEAVY_ATOM_COUNT>
13

> <PUBCHEM_ATOM_DEF_STEREO_COUNT>
0

> <PUBCHEM_ATOM_UDEF_STEREO_COUNT>
0

> <PUBCHEM_BOND_DEF_STEREO_COUNT>
0

> <PUBCHEM_BOND_UDEF_STEREO_COUNT>
0

> <PUBCHEM_ISOTOPIC_ATOM_COUNT>
0

> <PUBCHEM_COMPONENT_COUNT>
1

> <PUBCHEM_CACTVS_TAUTO_COUNT>
1

> <PUBCHEM_CONFORMER_ID>
00BCA02800000001

> <PUBCHEM_MMFF94_ENERGY>
29.1974

> <PUBCHEM_FEATURE_SELFOVERLAP>
15.311

> <PUBCHEM_SHAPE_FINGERPRINT>
10608611 8 18341890852851125448
10967382 1 18410575037450119655
11132069 177 18412258441318375537
13024252 1 12612745826781263199
13380535 76 18410573959477002175
14144814 61 18408601448743942418
14325111 11 18410575059072714144
14614273 12 18189048716452522725
15219456 202 18200883867787158639
15536298 74 18270961220415196326
15775835 57 18334860480660163872
16945 1 18410573989668191879
18186145 218 18130795525134336544
193761 8 17617940231696368397
20510252 161 18272090508523533392
20645476 183 17750816500066414326
20871998 184 18200037390026377903
21028194 46 18411420604820485857
21501502 16 18266454296314054403
21524375 3 18410009922928315095
2334 1 17906172102533447015
23402539 116 18342729758716425967
23402655 69 18197483049207326941
23463225 33 18262233309914130562
23559900 14 18273215301457519184
2748010 2 18051129495226043615
305870 269 18189050902221688979
43471831 8 18334290933600598602
5084963 1 18202283614803246521
528886 8 18411131420604260883
53812653 166 18342173332517581760
54173680 148 18192714676765870795
6333449 129 18412543227936255039
69090 78 18131064965312094598
7364860 26 18126003750181209879

> <PUBCHEM_SHAPE_MULTIPOLES>
250.81
5.58
1.95
0.6
4.03
0.34
0
-1.59
0
-0.57
0
-0.04
0.01
0

> <PUBCHEM_SHAPE_SELFOVERLAP>
544.763

> <PUBCHEM_SHAPE_VOLUME>
139.1

> <PUBCHEM_COORDINATE_TYPE>
2
5
10

$$$$
