125207
  -OEChem-11232109463D

 36 35  0     0  0  0  0  0  0999 V2000
   -7.0360   -0.6106   -0.0608 O   0  0  0  0  0  0  0  0  0  0  0  0
   -6.0013    1.4072    0.0399 O   0  0  0  0  0  0  0  0  0  0  0  0
    0.4807   -0.5523    0.0045 C   0  0  0  0  0  0  0  0  0  0  0  0
   -0.7962    0.2912    0.0205 C   0  0  0  0  0  0  0  0  0  0  0  0
    1.7625    0.2812    0.1153 C   0  0  0  0  0  0  0  0  0  0  0  0
   -2.0761   -0.5431   -0.1018 C   0  0  0  0  0  0  0  0  0  0  0  0
    3.0387   -0.5638    0.0756 C   0  0  0  0  0  0  0  0  0  0  0  0
    4.3197    0.2610    0.2578 C   0  0  0  0  0  0  0  0  0  0  0  0
   -3.3958    0.2331   -0.0014 C   0  0  0  0  0  0  0  0  0  0  0  0
    5.6320   -0.5221    0.1418 C   0  0  0  0  0  0  0  0  0  0  0  0
   -4.6611   -0.6229   -0.0711 C   0  0  0  0  0  0  0  0  0  0  0  0
    6.8487    0.3467    0.2654 C   0  0  0  0  0  0  0  0  0  0  0  0
   -5.9369    0.1880   -0.0348 C   0  0  0  0  0  0  0  0  0  0  0  0
    7.8213    0.4065   -0.6509 C   0  0  0  0  0  0  0  0  0  0  0  0
    0.4481   -1.2723    0.8315 H   0  0  0  0  0  0  0  0  0  0  0  0
    0.5127   -1.1370   -0.9231 H   0  0  0  0  0  0  0  0  0  0  0  0
   -0.8329    0.8676    0.9530 H   0  0  0  0  0  0  0  0  0  0  0  0
   -0.7642    1.0182   -0.8001 H   0  0  0  0  0  0  0  0  0  0  0  0
    1.7899    1.0128   -0.7015 H   0  0  0  0  0  0  0  0  0  0  0  0
    1.7368    0.8521    1.0516 H   0  0  0  0  0  0  0  0  0  0  0  0
   -2.0568   -1.0810   -1.0580 H   0  0  0  0  0  0  0  0  0  0  0  0
   -2.0689   -1.3099    0.6835 H   0  0  0  0  0  0  0  0  0  0  0  0
    2.9949   -1.3283    0.8608 H   0  0  0  0  0  0  0  0  0  0  0  0
    3.0865   -1.0956   -0.8824 H   0  0  0  0  0  0  0  0  0  0  0  0
    4.3230    1.0640   -0.4914 H   0  0  0  0  0  0  0  0  0  0  0  0
    4.2827    0.7561    1.2371 H   0  0  0  0  0  0  0  0  0  0  0  0
   -3.4027    0.7997    0.9386 H   0  0  0  0  0  0  0  0  0  0  0  0
   -3.4223    0.9808   -0.8046 H   0  0  0  0  0  0  0  0  0  0  0  0
    5.6429   -1.0643   -0.8119 H   0  0  0  0  0  0  0  0  0  0  0  0
    5.6665   -1.2796    0.9342 H   0  0  0  0  0  0  0  0  0  0  0  0
   -4.6753   -1.3184    0.7754 H   0  0  0  0  0  0  0  0  0  0  0  0
   -4.6582   -1.2008   -1.0020 H   0  0  0  0  0  0  0  0  0  0  0  0
    6.9447    0.9468    1.1666 H   0  0  0  0  0  0  0  0  0  0  0  0
    8.6813    1.0493   -0.4977 H   0  0  0  0  0  0  0  0  0  0  0  0
    7.7788   -0.1785   -1.5629 H   0  0  0  0  0  0  0  0  0  0  0  0
   -7.8667   -0.0902   -0.0221 H   0  0  0  0  0  0  0  0  0  0  0  0
  1 13  1  0  0  0  0
  1 36  1  0  0  0  0
  2 13  2  0  0  0  0
  3  4  1  0  0  0  0
  3  5  1  0  0  0  0
  3 15  1  0  0  0  0
  3 16  1  0  0  0  0
  4  6  1  0  0  0  0
  4 17  1  0  0  0  0
  4 18  1  0  0  0  0
  5  7  1  0  0  0  0
  5 19  1  0  0  0  0
  5 20  1  0  0  0  0
  6  9  1  0  0  0  0
  6 21  1  0  0  0  0
  6 22  1  0  0  0  0
  7  8  1  0  0  0  0
  7 23  1  0  0  0  0
  7 24  1  0  0  0  0
  8 10  1  0  0  0  0
  8 25  1  0  0  0  0
  8 26  1  0  0  0  0
  9 11  1  0  0  0  0
  9 27  1  0  0  0  0
  9 28  1  0  0  0  0
 10 12  1  0  0  0  0
 10 29  1  0  0  0  0
 10 30  1  0  0  0  0
 11 13  1  0  0  0  0
 11 31  1  0  0  0  0
 11 32  1  0  0  0  0
 12 14  2  0  0  0  0
 12 33  1  0  0  0  0
 14 34  1  0  0  0  0
 14 35  1  0  0  0  0
M  END
> <PUBCHEM_COMPOUND_CID>
125207

> <PUBCHEM_CONFORMER_RMSD>
1

> <PUBCHEM_CONFORMER_DIVERSEORDER>
1
308
39
18
629
194
139
467
68
143
215
25
24
460
65
205
226
64
63
30
119
237
174
50
561
218
35
126
302
76
7
317
254
36
66
324
573
386
2
72
459
489
69
38
654
151
19
280
546
231
14
115
160
144
157
168
107
78
15
29
23
582
240
346
309
228
8
9
89
124
108
6
404
387
5
111
54
416
658
22
21
123
162
12
316
200
242
468
45
345
475
233
454
418
141
616
571

> <PUBCHEM_MMFF94_PARTIAL_CHARGES>
11
1 -0.65
10 0.14
11 0.06
12 -0.29
13 0.66
14 -0.3
2 -0.57
33 0.15
34 0.15
35 0.15
36 0.5

> <PUBCHEM_EFFECTIVE_ROTOR_COUNT>
10

> <PUBCHEM_PHARMACOPHORE_FEATURES>
4
1 1 acceptor
1 14 hydrophobe
1 2 acceptor
3 1 2 13 anion

> <PUBCHEM_HEAVY_ATOM_COUNT>
14

> <PUBCHEM_ATOM_DEF_STEREO_COUNT>
0

> <PUBCHEM_ATOM_UDEF_STEREO_COUNT>
0

> <PUBCHEM_BOND_DEF_STEREO_COUNT>
0

> <PUBCHEM_BOND_UDEF_STEREO_COUNT>
0

> <PUBCHEM_ISOTOPIC_ATOM_COUNT>
0

> <PUBCHEM_COMPONENT_COUNT>
1

> <PUBCHEM_CACTVS_TAUTO_COUNT>
1

> <PUBCHEM_CONFORMER_ID>
0001E91700000001

> <PUBCHEM_MMFF94_ENERGY>
3.4805

> <PUBCHEM_FEATURE_SELFOVERLAP>
20.356

> <PUBCHEM_SHAPE_FINGERPRINT>
10968037 39 18408885140071483671
11315181 36 18040999553635555953
12091667 2 18342457050163500947
13073987 5 13984927499361180644
13533116 47 17458614580994369114
14123256 10 17489871535749770386
14251764 18 18259701198790716610
14251764 46 17967532376868847371
17834076 25 18260547827002135082
18006028 8 15195286426135086442
20281389 69 18040711464140482924
20735858 18 11891329864288174968
21130983 4 17748829622773380452
220451 1 18186794790582747970
22224240 67 15574713616778099418
23035841 295 10375869675608344668
23402539 116 18130781274654264823
23521765 1 18342175574733077170
28498 318 13398639333756668436
33684 2 18411980260544612107
42788 4 18412543210925164931
4463277 17 18411135840231337240
57583515 80 18413672413398185731
59567204 34 18201440217315531777
8209 1 18410855464428403846

> <PUBCHEM_SHAPE_MULTIPOLES>
276.37
23.28
0.89
0.65
6.01
0.09
-0.02
2.78
-1.57
-0.61
0
0.38
0.01
-0.18

> <PUBCHEM_SHAPE_SELFOVERLAP>
502.756

> <PUBCHEM_SHAPE_VOLUME>
175.7

> <PUBCHEM_COORDINATE_TYPE>
2
5
10

$$$$
