126537
  -OEChem-11232108463D

 27 28  0     1  0  0  0  0  0999 V2000
    1.0256   -1.8425   -0.0936 O   0  0  0  0  0  0  0  0  0  0  0  0
    0.7632    0.4221   -0.7752 C   0  0  1  0  0  0  0  0  0  0  0  0
    1.5439    0.3786    0.5335 C   0  0  1  0  0  0  0  0  0  0  0  0
    0.1378   -0.9741   -0.8254 C   0  0  2  0  0  0  0  0  0  0  0  0
   -0.2684    1.5384   -0.9025 C   0  0  0  0  0  0  0  0  0  0  0  0
    2.0571   -1.0509    0.5146 C   0  0  0  0  0  0  0  0  0  0  0  0
   -1.4406    1.3940    0.0712 C   0  0  0  0  0  0  0  0  0  0  0  0
   -1.2306   -1.0770   -0.2140 C   0  0  0  0  0  0  0  0  0  0  0  0
   -1.9469   -0.0195    0.2044 C   0  0  0  0  0  0  0  0  0  0  0  0
    2.6526    1.4112    0.6410 C   0  0  0  0  0  0  0  0  0  0  0  0
   -3.2937   -0.1802    0.8459 C   0  0  0  0  0  0  0  0  0  0  0  0
    1.4784    0.5134   -1.6051 H   0  0  0  0  0  0  0  0  0  0  0  0
    0.8670    0.4960    1.3885 H   0  0  0  0  0  0  0  0  0  0  0  0
    0.0851   -1.3366   -1.8582 H   0  0  0  0  0  0  0  0  0  0  0  0
   -0.6653    1.5252   -1.9266 H   0  0  0  0  0  0  0  0  0  0  0  0
    0.2029    2.5185   -0.7678 H   0  0  0  0  0  0  0  0  0  0  0  0
    2.9624   -1.1581   -0.0934 H   0  0  0  0  0  0  0  0  0  0  0  0
    2.2649   -1.4347    1.5177 H   0  0  0  0  0  0  0  0  0  0  0  0
   -2.2521    2.0462   -0.2740 H   0  0  0  0  0  0  0  0  0  0  0  0
   -1.1456    1.7562    1.0635 H   0  0  0  0  0  0  0  0  0  0  0  0
   -1.6408   -2.0785   -0.1085 H   0  0  0  0  0  0  0  0  0  0  0  0
    3.2197    1.2717    1.5671 H   0  0  0  0  0  0  0  0  0  0  0  0
    3.3537    1.3366   -0.1970 H   0  0  0  0  0  0  0  0  0  0  0  0
    2.2414    2.4255    0.6473 H   0  0  0  0  0  0  0  0  0  0  0  0
   -3.2863    0.2470    1.8539 H   0  0  0  0  0  0  0  0  0  0  0  0
   -3.5882   -1.2314    0.9318 H   0  0  0  0  0  0  0  0  0  0  0  0
   -4.0593    0.3334    0.2557 H   0  0  0  0  0  0  0  0  0  0  0  0
  1  4  1  0  0  0  0
  1  6  1  0  0  0  0
  2  3  1  0  0  0  0
  2  4  1  0  0  0  0
  2  5  1  0  0  0  0
  2 12  1  0  0  0  0
  3  6  1  0  0  0  0
  3 10  1  0  0  0  0
  3 13  1  0  0  0  0
  4  8  1  0  0  0  0
  4 14  1  0  0  0  0
  5  7  1  0  0  0  0
  5 15  1  0  0  0  0
  5 16  1  0  0  0  0
  6 17  1  0  0  0  0
  6 18  1  0  0  0  0
  7  9  1  0  0  0  0
  7 19  1  0  0  0  0
  7 20  1  0  0  0  0
  8  9  2  0  0  0  0
  8 21  1  0  0  0  0
  9 11  1  0  0  0  0
 10 22  1  0  0  0  0
 10 23  1  0  0  0  0
 10 24  1  0  0  0  0
 11 25  1  0  0  0  0
 11 26  1  0  0  0  0
 11 27  1  0  0  0  0
M  END
> <PUBCHEM_COMPOUND_CID>
126537

> <PUBCHEM_CONFORMER_RMSD>
0.4

> <PUBCHEM_CONFORMER_DIVERSEORDER>
2
1

> <PUBCHEM_MMFF94_PARTIAL_CHARGES>
8
1 -0.56
11 0.14
21 0.15
4 0.42
6 0.28
7 0.14
8 -0.29
9 -0.28

> <PUBCHEM_EFFECTIVE_ROTOR_COUNT>
1

> <PUBCHEM_PHARMACOPHORE_FEATURES>
3
1 1 acceptor
5 1 2 3 4 6 rings
6 2 4 5 7 8 9 rings

> <PUBCHEM_HEAVY_ATOM_COUNT>
11

> <PUBCHEM_ATOM_DEF_STEREO_COUNT>
3

> <PUBCHEM_ATOM_UDEF_STEREO_COUNT>
0

> <PUBCHEM_BOND_DEF_STEREO_COUNT>
0

> <PUBCHEM_BOND_UDEF_STEREO_COUNT>
0

> <PUBCHEM_ISOTOPIC_ATOM_COUNT>
0

> <PUBCHEM_COMPONENT_COUNT>
1

> <PUBCHEM_CACTVS_TAUTO_COUNT>
1

> <PUBCHEM_CONFORMER_ID>
0001EE4900000002

> <PUBCHEM_MMFF94_ENERGY>
15.495

> <PUBCHEM_FEATURE_SELFOVERLAP>
15.429

> <PUBCHEM_SHAPE_FINGERPRINT>
10219947 1 18335702784039877961
10857977 72 18186524306374125889
12423570 1 13159413563103853908
13839132 238 17346053267063040113
15557651 10 17131545132631949184
15775835 57 18130508638208695832
161256 15 18338805515664443094
16945 1 18342168921565102078
18185500 45 18049716609714865903
20653085 51 14189288335089129672
21040471 1 18340777055760904062
21922407 69 17131539557975187637
241688 4 17971765367164345457
2748010 2 18264203621533848685
29004967 10 17676483973146196705
5084963 1 18189344484737249345

> <PUBCHEM_SHAPE_MULTIPOLES>
220.51
3.72
1.75
0.97
1.21
0.02
-0.06
-0.34
1.6
-0.52
-0.15
0.01
-0.1
0.15

> <PUBCHEM_SHAPE_SELFOVERLAP>
452.9

> <PUBCHEM_SHAPE_VOLUME>
128.5

> <PUBCHEM_COORDINATE_TYPE>
2
5
10

$$$$
