12833143
  -OEChem-11232108453D

 20 20  0     0  0  0  0  0  0999 V2000
   -1.7445   -1.7319    0.2299 S   0  0  0  0  0  0  0  0  0  0  0  0
    1.8314    0.4832   -0.0456 O   0  0  0  0  0  0  0  0  0  0  0  0
    3.8228   -0.3271    0.8134 O   0  0  0  0  0  0  0  0  0  0  0  0
   -2.5348    0.6824    0.7089 N   0  0  0  0  0  0  0  0  0  0  0  0
    0.2403   -0.7283   -1.4223 C   0  0  0  0  0  0  0  0  0  0  0  0
   -0.9260   -0.4393   -0.5073 C   0  0  0  0  0  0  0  0  0  0  0  0
    1.5652   -0.7688   -0.6656 C   0  0  0  0  0  0  0  0  0  0  0  0
   -1.4600    0.7583   -0.1550 C   0  0  0  0  0  0  0  0  0  0  0  0
   -1.0148    2.0965   -0.5950 C   0  0  0  0  0  0  0  0  0  0  0  0
   -2.7739   -0.5816    0.9797 C   0  0  0  0  0  0  0  0  0  0  0  0
    2.9944    0.5566    0.6590 C   0  0  0  0  0  0  0  0  0  0  0  0
    0.2871    0.0518   -2.1918 H   0  0  0  0  0  0  0  0  0  0  0  0
    0.0880   -1.6786   -1.9482 H   0  0  0  0  0  0  0  0  0  0  0  0
    2.3712   -0.9973   -1.3732 H   0  0  0  0  0  0  0  0  0  0  0  0
    1.5398   -1.5539    0.1001 H   0  0  0  0  0  0  0  0  0  0  0  0
   -0.1149    2.4012   -0.0527 H   0  0  0  0  0  0  0  0  0  0  0  0
   -0.7998    2.1142   -1.6677 H   0  0  0  0  0  0  0  0  0  0  0  0
   -1.7894    2.8465   -0.4038 H   0  0  0  0  0  0  0  0  0  0  0  0
   -3.5745   -0.8870    1.6392 H   0  0  0  0  0  0  0  0  0  0  0  0
    3.0806    1.5676    1.0858 H   0  0  0  0  0  0  0  0  0  0  0  0
  1  6  1  0  0  0  0
  1 10  1  0  0  0  0
  2  7  1  0  0  0  0
  2 11  1  0  0  0  0
  3 11  2  0  0  0  0
  4  8  1  0  0  0  0
  4 10  2  0  0  0  0
  5  6  1  0  0  0  0
  5  7  1  0  0  0  0
  5 12  1  0  0  0  0
  5 13  1  0  0  0  0
  6  8  2  0  0  0  0
  7 14  1  0  0  0  0
  7 15  1  0  0  0  0
  8  9  1  0  0  0  0
  9 16  1  0  0  0  0
  9 17  1  0  0  0  0
  9 18  1  0  0  0  0
 10 19  1  0  0  0  0
 11 20  1  0  0  0  0
M  END
> <PUBCHEM_COMPOUND_CID>
12833143

> <PUBCHEM_CONFORMER_RMSD>
0.6

> <PUBCHEM_CONFORMER_DIVERSEORDER>
1
9
31
15
8
26
14
12
18
6
28
30
21
7
23
17
25
22
3
4
13
27
11
16
29
32
24
19
10
20
5
2

> <PUBCHEM_MMFF94_PARTIAL_CHARGES>
13
1 -0.08
10 0.23
11 0.66
19 0.15
2 -0.43
20 0.06
3 -0.57
4 -0.57
5 0.18
6 -0.14
7 0.28
8 0.05
9 0.18

> <PUBCHEM_EFFECTIVE_ROTOR_COUNT>
4

> <PUBCHEM_PHARMACOPHORE_FEATURES>
3
1 3 acceptor
1 4 acceptor
5 1 4 6 8 10 rings

> <PUBCHEM_HEAVY_ATOM_COUNT>
11

> <PUBCHEM_ATOM_DEF_STEREO_COUNT>
0

> <PUBCHEM_ATOM_UDEF_STEREO_COUNT>
0

> <PUBCHEM_BOND_DEF_STEREO_COUNT>
0

> <PUBCHEM_BOND_UDEF_STEREO_COUNT>
0

> <PUBCHEM_ISOTOPIC_ATOM_COUNT>
0

> <PUBCHEM_COMPONENT_COUNT>
1

> <PUBCHEM_CACTVS_TAUTO_COUNT>
1

> <PUBCHEM_CONFORMER_ID>
00C3D17700000001

> <PUBCHEM_MMFF94_ENERGY>
10.0711

> <PUBCHEM_FEATURE_SELFOVERLAP>
15.223

> <PUBCHEM_SHAPE_FINGERPRINT>
10857977 72 18337972154723020231
11127187 94 11314310537795779617
12251169 10 18341054102679002082
12696612 119 18340773748926418252
13024252 1 17313092047635565039
15775835 57 14620800374813102522
16945 1 18410583889520128829
20361792 2 15430037668881852238
20645464 45 18202287969894972255
20653085 51 13038915459717483962
220403 375 17610890193515284357
23211744 41 18127979598567264215
23402539 116 18340474634946161207
27216 239 17774144838183007264
2748010 2 18121801438657259215
369184 2 18186798097501415039
54338 74 18263639739809920199

> <PUBCHEM_SHAPE_MULTIPOLES>
213.5
4.88
1.66
1.12
4.28
0.47
-0.14
-0.33
2.42
-0.94
-0.22
0.09
-0.14
0.29

> <PUBCHEM_SHAPE_SELFOVERLAP>
416.662

> <PUBCHEM_SHAPE_VOLUME>
130.3

> <PUBCHEM_COORDINATE_TYPE>
2
5
10

$$$$
