12867949
  -OEChem-11232109143D

 42 44  0     1  0  0  0  0  0999 V2000
    0.2266   -1.3537   -1.0694 O   0  0  0  0  0  0  0  0  0  0  0  0
   -1.2117    0.4441   -0.3767 C   0  0  1  0  0  0  0  0  0  0  0  0
    1.1502    0.4673    0.3210 C   0  0  1  0  0  0  0  0  0  0  0  0
   -0.0352   -0.4721    0.0144 C   0  0  0  0  0  0  0  0  0  0  0  0
   -2.5178    0.0514    0.2988 C   0  0  0  0  0  0  0  0  0  0  0  0
    2.5121    0.0128   -0.1741 C   0  0  0  0  0  0  0  0  0  0  0  0
   -0.7612    1.8546    0.0001 C   0  0  0  0  0  0  0  0  0  0  0  0
    0.7346    1.8169   -0.2673 C   0  0  0  0  0  0  0  0  0  0  0  0
   -3.6803    0.9725   -0.0581 C   0  0  0  0  0  0  0  0  0  0  0  0
   -3.0368   -1.3133   -0.1428 C   0  0  0  0  0  0  0  0  0  0  0  0
    3.6280    1.0042    0.1405 C   0  0  0  0  0  0  0  0  0  0  0  0
    3.0058   -1.2596    0.5071 C   0  0  0  0  0  0  0  0  0  0  0  0
   -4.9206    0.1684    0.3198 C   0  0  0  0  0  0  0  0  0  0  0  0
   -4.5030   -1.3026    0.2768 C   0  0  0  0  0  0  0  0  0  0  0  0
    4.9059    0.1839   -0.0071 C   0  0  0  0  0  0  0  0  0  0  0  0
    4.5031   -1.2746    0.2170 C   0  0  0  0  0  0  0  0  0  0  0  0
   -1.3499    0.4103   -1.4673 H   0  0  0  0  0  0  0  0  0  0  0  0
    1.1863    0.5979    1.4130 H   0  0  0  0  0  0  0  0  0  0  0  0
   -0.2484   -1.0851    0.8975 H   0  0  0  0  0  0  0  0  0  0  0  0
   -2.3894    0.0491    1.3905 H   0  0  0  0  0  0  0  0  0  0  0  0
    2.4874   -0.1456   -1.2612 H   0  0  0  0  0  0  0  0  0  0  0  0
   -0.9500    2.0651    1.0599 H   0  0  0  0  0  0  0  0  0  0  0  0
   -1.2607    2.6246   -0.5958 H   0  0  0  0  0  0  0  0  0  0  0  0
    0.9289    1.8566   -1.3461 H   0  0  0  0  0  0  0  0  0  0  0  0
    1.2487    2.6583    0.2071 H   0  0  0  0  0  0  0  0  0  0  0  0
   -3.6943    1.1873   -1.1338 H   0  0  0  0  0  0  0  0  0  0  0  0
   -3.6418    1.9276    0.4749 H   0  0  0  0  0  0  0  0  0  0  0  0
   -2.4929   -2.1433    0.3183 H   0  0  0  0  0  0  0  0  0  0  0  0
   -2.9676   -1.4266   -1.2318 H   0  0  0  0  0  0  0  0  0  0  0  0
    3.5455    1.3744    1.1699 H   0  0  0  0  0  0  0  0  0  0  0  0
    3.6269    1.8696   -0.5296 H   0  0  0  0  0  0  0  0  0  0  0  0
    2.5149   -2.1627    0.1330 H   0  0  0  0  0  0  0  0  0  0  0  0
    2.8411   -1.2127    1.5907 H   0  0  0  0  0  0  0  0  0  0  0  0
   -5.7515    0.3757   -0.3622 H   0  0  0  0  0  0  0  0  0  0  0  0
   -5.2528    0.4302    1.3309 H   0  0  0  0  0  0  0  0  0  0  0  0
   -4.6180   -1.7490    1.2714 H   0  0  0  0  0  0  0  0  0  0  0  0
   -5.1210   -1.8821   -0.4163 H   0  0  0  0  0  0  0  0  0  0  0  0
    5.6711    0.5088    0.7051 H   0  0  0  0  0  0  0  0  0  0  0  0
    5.3228    0.3030   -1.0138 H   0  0  0  0  0  0  0  0  0  0  0  0
    4.7101   -1.8588   -0.6872 H   0  0  0  0  0  0  0  0  0  0  0  0
    5.0644   -1.7314    1.0383 H   0  0  0  0  0  0  0  0  0  0  0  0
   -0.5565   -1.9163   -1.1905 H   0  0  0  0  0  0  0  0  0  0  0  0
  1  4  1  0  0  0  0
  1 42  1  0  0  0  0
  2  4  1  0  0  0  0
  2  5  1  0  0  0  0
  2  7  1  0  0  0  0
  2 17  1  0  0  0  0
  3  4  1  0  0  0  0
  3  6  1  0  0  0  0
  3  8  1  0  0  0  0
  3 18  1  0  0  0  0
  4 19  1  0  0  0  0
  5  9  1  0  0  0  0
  5 10  1  0  0  0  0
  5 20  1  0  0  0  0
  6 11  1  0  0  0  0
  6 12  1  0  0  0  0
  6 21  1  0  0  0  0
  7  8  1  0  0  0  0
  7 22  1  0  0  0  0
  7 23  1  0  0  0  0
  8 24  1  0  0  0  0
  8 25  1  0  0  0  0
  9 13  1  0  0  0  0
  9 26  1  0  0  0  0
  9 27  1  0  0  0  0
 10 14  1  0  0  0  0
 10 28  1  0  0  0  0
 10 29  1  0  0  0  0
 11 15  1  0  0  0  0
 11 30  1  0  0  0  0
 11 31  1  0  0  0  0
 12 16  1  0  0  0  0
 12 32  1  0  0  0  0
 12 33  1  0  0  0  0
 13 14  1  0  0  0  0
 13 34  1  0  0  0  0
 13 35  1  0  0  0  0
 14 36  1  0  0  0  0
 14 37  1  0  0  0  0
 15 16  1  0  0  0  0
 15 38  1  0  0  0  0
 15 39  1  0  0  0  0
 16 40  1  0  0  0  0
 16 41  1  0  0  0  0
M  END
> <PUBCHEM_COMPOUND_CID>
12867949

> <PUBCHEM_CONFORMER_RMSD>
0.6

> <PUBCHEM_CONFORMER_DIVERSEORDER>
1
20
30
35
14
10
29
13
27
21
19
18
34
7
23
32
33
6
2
11
24
31
15
3
25
9
16
28
17
22
12
26
8
4
5

> <PUBCHEM_MMFF94_PARTIAL_CHARGES>
3
1 -0.68
4 0.28
42 0.4

> <PUBCHEM_EFFECTIVE_ROTOR_COUNT>
5

> <PUBCHEM_PHARMACOPHORE_FEATURES>
5
1 1 acceptor
1 1 donor
5 2 3 4 7 8 rings
5 5 9 10 13 14 rings
5 6 11 12 15 16 rings

> <PUBCHEM_HEAVY_ATOM_COUNT>
16

> <PUBCHEM_ATOM_DEF_STEREO_COUNT>
0

> <PUBCHEM_ATOM_UDEF_STEREO_COUNT>
2

> <PUBCHEM_BOND_DEF_STEREO_COUNT>
0

> <PUBCHEM_BOND_UDEF_STEREO_COUNT>
0

> <PUBCHEM_ISOTOPIC_ATOM_COUNT>
0

> <PUBCHEM_COMPONENT_COUNT>
1

> <PUBCHEM_CACTVS_TAUTO_COUNT>
1

> <PUBCHEM_CONFORMER_ID>
00C4596D00000001

> <PUBCHEM_MMFF94_ENERGY>
38.0197

> <PUBCHEM_FEATURE_SELFOVERLAP>
25.373

> <PUBCHEM_SHAPE_FINGERPRINT>
10062212 137 18342173393048069951
11046707 91 18410572890277682097
11132069 177 18413387626827544873
11401426 45 18409727365804358225
11543360 7 15574723520477006166
11806522 49 18334576871026665352
12032990 46 18409449180524689444
12107183 9 17689716359352620450
12251169 10 18413109485141107799
124424 183 18333730221925777837
13167823 11 18408321085842319819
13214271 11 18343299250031503117
13288520 33 18410013221341716775
13675066 3 18201997741774808345
13690532 89 18409167718374799977
13760787 5 18411412929740334533
13862211 1 18411976966326100455
14115302 16 17386298673994707810
14251764 18 18341901797165910353
14252887 29 18202572760987349038
14943859 89 8430313537062177993
15196674 1 18410292514469707795
15242433 33 18335422369746068058
15536298 74 18341893047410621616
17804303 29 18343302587015499929
17834072 33 18336266829194200484
1813 80 17530688688421927086
18186145 218 13984670269100472197
19141452 34 18342457058521496023
19422 9 18408045112797706560
200 152 18410291410721206616
20028762 73 17916021455214592535
20261772 1 18131348639354414790
20281475 54 18335701667242976949
20645477 70 18409166576383367902
21267235 1 18409456885664525930
22094290 60 16443059483102681629
221490 88 18044382853276097731
22485316 2 18408038511358937761
23402539 116 18412257333712497055
23463225 33 18410856568235064053
23557571 272 18338522932707755876
23559900 14 18409162225502278520
23622692 118 17985257719805960463
26918003 58 17967533475663024722
2871803 45 18186798050441553682
42 15 18410012134709664115
4214541 1 18408885101206112737
4463277 17 18409732867573328212
465052 167 18411987987243869503
5104073 3 18411699885084733457
5374978 207 18409724058996097288
537710 114 18410298033967296708
77779 3 18408886234871464784
83771 10 18335136492391014216
8809292 202 18260270789143535291
9709674 26 18335426742260646114

> <PUBCHEM_SHAPE_MULTIPOLES>
323.4
10.18
1.71
0.72
0.17
0.21
0.04
-2.63
-1.18
0.02
0.06
0
-0.08
-0.09

> <PUBCHEM_SHAPE_SELFOVERLAP>
670.234

> <PUBCHEM_SHAPE_VOLUME>
187.7

> <PUBCHEM_COORDINATE_TYPE>
2
5
10

$$$$
