1287
  -OEChem-11232108513D

 51 54  0     1  0  0  0  0  0999 V2000
    2.8812   -0.7599   -0.3257 O   0  0  0  0  0  0  0  0  0  0  0  0
   -0.5471    0.5815    0.0439 O   0  0  0  0  0  0  0  0  0  0  0  0
    3.2735    4.0532    0.0457 O   0  0  0  0  0  0  0  0  0  0  0  0
    7.1377    1.3092   -0.3758 O   0  0  0  0  0  0  0  0  0  0  0  0
    0.3844   -4.2686    2.5468 O   0  0  0  0  0  0  0  0  0  0  0  0
   -0.9649   -4.6120   -2.0357 O   0  0  0  0  0  0  0  0  0  0  0  0
   -0.7367    2.3150    1.5467 O   0  0  0  0  0  0  0  0  0  0  0  0
   -0.8628   -5.6818    0.5172 O   0  0  0  0  0  0  0  0  0  0  0  0
   -5.1906   -0.8079   -0.7539 O   0  0  0  0  0  0  0  0  0  0  0  0
   -5.4171    3.8940    0.1260 O   0  0  0  0  0  0  0  0  0  0  0  0
   -6.6511    1.5431   -0.6615 O   0  0  0  0  0  0  0  0  0  0  0  0
    0.8472    0.4814    0.3138 C   0  0  1  0  0  0  0  0  0  0  0  0
    1.4680   -0.6270   -0.5480 C   0  0  2  0  0  0  0  0  0  0  0  0
    1.5094    1.8143   -0.0249 C   0  0  0  0  0  0  0  0  0  0  0  0
    2.9978    1.6686   -0.1180 C   0  0  0  0  0  0  0  0  0  0  0  0
    0.8433   -1.9802   -0.2625 C   0  0  0  0  0  0  0  0  0  0  0  0
    3.5896    0.4106   -0.2731 C   0  0  0  0  0  0  0  0  0  0  0  0
    3.8142    2.8069   -0.0780 C   0  0  0  0  0  0  0  0  0  0  0  0
    4.9800    0.2906   -0.3479 C   0  0  0  0  0  0  0  0  0  0  0  0
    0.2179   -2.6859   -1.2880 C   0  0  0  0  0  0  0  0  0  0  0  0
    0.8982   -2.5124    1.0236 C   0  0  0  0  0  0  0  0  0  0  0  0
    5.2015    2.6863   -0.1647 C   0  0  0  0  0  0  0  0  0  0  0  0
    5.7842    1.4281   -0.2958 C   0  0  0  0  0  0  0  0  0  0  0  0
   -1.2193    1.5438    0.7318 C   0  0  0  0  0  0  0  0  0  0  0  0
    0.3247   -3.7567    1.2857 C   0  0  0  0  0  0  0  0  0  0  0  0
   -0.3557   -3.9301   -1.0259 C   0  0  0  0  0  0  0  0  0  0  0  0
   -0.3023   -4.4655    0.2609 C   0  0  0  0  0  0  0  0  0  0  0  0
   -2.6574    1.5439    0.3629 C   0  0  0  0  0  0  0  0  0  0  0  0
   -3.3610    2.7296    0.4194 C   0  0  0  0  0  0  0  0  0  0  0  0
   -3.2465    0.3578   -0.0250 C   0  0  0  0  0  0  0  0  0  0  0  0
   -4.5977    0.3574   -0.3712 C   0  0  0  0  0  0  0  0  0  0  0  0
   -4.7121    2.7293    0.0732 C   0  0  0  0  0  0  0  0  0  0  0  0
   -5.3305    1.5432   -0.3221 C   0  0  0  0  0  0  0  0  0  0  0  0
    1.0006    0.2662    1.3802 H   0  0  0  0  0  0  0  0  0  0  0  0
    1.3166   -0.3911   -1.6112 H   0  0  0  0  0  0  0  0  0  0  0  0
    1.3016    2.5671    0.7393 H   0  0  0  0  0  0  0  0  0  0  0  0
    1.1264    2.2032   -0.9774 H   0  0  0  0  0  0  0  0  0  0  0  0
    5.4374   -0.6903   -0.4528 H   0  0  0  0  0  0  0  0  0  0  0  0
    0.1750   -2.2695   -2.2913 H   0  0  0  0  0  0  0  0  0  0  0  0
    1.3957   -1.9701    1.8235 H   0  0  0  0  0  0  0  0  0  0  0  0
    5.8292    3.5735   -0.1292 H   0  0  0  0  0  0  0  0  0  0  0  0
    3.9882    4.7126    0.0551 H   0  0  0  0  0  0  0  0  0  0  0  0
    7.5361    2.1950   -0.3239 H   0  0  0  0  0  0  0  0  0  0  0  0
   -2.8768    3.6534    0.7243 H   0  0  0  0  0  0  0  0  0  0  0  0
   -2.6960   -0.5785   -0.0564 H   0  0  0  0  0  0  0  0  0  0  0  0
    0.8537   -3.6408    3.1226 H   0  0  0  0  0  0  0  0  0  0  0  0
   -0.9053   -4.0888   -2.8533 H   0  0  0  0  0  0  0  0  0  0  0  0
   -0.7291   -5.8892    1.4584 H   0  0  0  0  0  0  0  0  0  0  0  0
   -6.1244   -0.6240   -0.9561 H   0  0  0  0  0  0  0  0  0  0  0  0
   -4.8271    4.6090    0.4202 H   0  0  0  0  0  0  0  0  0  0  0  0
   -6.9922    2.4496   -0.5680 H   0  0  0  0  0  0  0  0  0  0  0  0
  1 13  1  0  0  0  0
  1 17  1  0  0  0  0
  2 12  1  0  0  0  0
  2 24  1  0  0  0  0
  3 18  1  0  0  0  0
  3 42  1  0  0  0  0
  4 23  1  0  0  0  0
  4 43  1  0  0  0  0
  5 25  1  0  0  0  0
  5 46  1  0  0  0  0
  6 26  1  0  0  0  0
  6 47  1  0  0  0  0
  7 24  2  0  0  0  0
  8 27  1  0  0  0  0
  8 48  1  0  0  0  0
  9 31  1  0  0  0  0
  9 49  1  0  0  0  0
 10 32  1  0  0  0  0
 10 50  1  0  0  0  0
 11 33  1  0  0  0  0
 11 51  1  0  0  0  0
 12 13  1  0  0  0  0
 12 14  1  0  0  0  0
 12 34  1  0  0  0  0
 13 16  1  0  0  0  0
 13 35  1  0  0  0  0
 14 15  1  0  0  0  0
 14 36  1  0  0  0  0
 14 37  1  0  0  0  0
 15 17  1  0  0  0  0
 15 18  2  0  0  0  0
 16 20  2  0  0  0  0
 16 21  1  0  0  0  0
 17 19  2  0  0  0  0
 18 22  1  0  0  0  0
 19 23  1  0  0  0  0
 19 38  1  0  0  0  0
 20 26  1  0  0  0  0
 20 39  1  0  0  0  0
 21 25  2  0  0  0  0
 21 40  1  0  0  0  0
 22 23  2  0  0  0  0
 22 41  1  0  0  0  0
 24 28  1  0  0  0  0
 25 27  1  0  0  0  0
 26 27  2  0  0  0  0
 28 29  2  0  0  0  0
 28 30  1  0  0  0  0
 29 32  1  0  0  0  0
 29 44  1  0  0  0  0
 30 31  2  0  0  0  0
 30 45  1  0  0  0  0
 31 33  1  0  0  0  0
 32 33  2  0  0  0  0
M  END
> <PUBCHEM_COMPOUND_CID>
1287

> <PUBCHEM_CONFORMER_RMSD>
0.8

> <PUBCHEM_CONFORMER_DIVERSEORDER>
16
151
123
125
10
44
90
132
71
9
73
62
104
120
115
129
32
7
22
15
141
154
55
133
159
157
75
86
161
91
144
150
85
12
126
23
35
106
13
70
24
68
58
142
117
131
69
111
43
93
147
136
59
49
146
79
96
97
156
63
45
41
76
121
37
80
27
130
48
57
50
113
26
137
66
11
47
83
105
139
165
4
108
54
87
61
112
102
99
67
164
72
39
42
134
118
51
31
158
17
162
36
103
25
21
40
33
138
110
107
34
127
128
65
94
6
5
148
155
114
98
153
20
135
74
101
84
81
152
56
95
124
46
64
52
116
77
92
143
78
53
89
149
18
145
160
119
2
140
60
100
8
38
82
3
29
30
122
28
19
1
109
88
163
14

> <PUBCHEM_MMFF94_PARTIAL_CHARGES>
47
1 -0.36
10 -0.53
11 -0.53
12 0.28
13 0.42
14 0.14
15 -0.14
16 -0.14
17 0.08
18 0.08
19 -0.15
2 -0.43
20 -0.15
21 -0.15
22 -0.15
23 0.08
24 0.63
25 0.08
26 0.08
27 0.08
28 0.09
29 -0.15
3 -0.53
30 -0.15
31 0.08
32 0.08
33 0.08
38 0.15
39 0.15
4 -0.53
40 0.15
41 0.15
42 0.45
43 0.45
44 0.15
45 0.15
46 0.45
47 0.45
48 0.45
49 0.45
5 -0.53
50 0.45
51 0.45
6 -0.53
7 -0.57
8 -0.53
9 -0.53

> <PUBCHEM_EFFECTIVE_ROTOR_COUNT>
4.8

> <PUBCHEM_PHARMACOPHORE_FEATURES>
14
1 1 acceptor
1 10 donor
1 11 donor
1 3 donor
1 4 donor
1 5 donor
1 6 donor
1 7 acceptor
1 8 donor
1 9 donor
6 1 12 13 14 15 17 rings
6 15 17 18 19 22 23 rings
6 16 20 21 25 26 27 rings
6 28 29 30 31 32 33 rings

> <PUBCHEM_HEAVY_ATOM_COUNT>
33

> <PUBCHEM_ATOM_DEF_STEREO_COUNT>
0

> <PUBCHEM_ATOM_UDEF_STEREO_COUNT>
2

> <PUBCHEM_BOND_DEF_STEREO_COUNT>
0

> <PUBCHEM_BOND_UDEF_STEREO_COUNT>
0

> <PUBCHEM_ISOTOPIC_ATOM_COUNT>
0

> <PUBCHEM_COMPONENT_COUNT>
1

> <PUBCHEM_CACTVS_TAUTO_COUNT>
1000

> <PUBCHEM_CONFORMER_ID>
0000050700000010

> <PUBCHEM_MMFF94_ENERGY>
98.4099

> <PUBCHEM_FEATURE_SELFOVERLAP>
71.101

> <PUBCHEM_SHAPE_FINGERPRINT>
10032420 55 18057865000848303997
10090160 65 18411980226348800333
10119406 146 18341060670623566622
10675989 125 17832706769236714633
1100329 8 18337103485125119362
11135926 11 18338230441345834557
11421498 54 17559965320310844921
11719270 70 18339353055175167904
11991303 11 18261682583395247806
12107183 9 17117201694965009465
12156800 1 17910926335051788330
12293681 160 17917714586755804208
12788726 201 17976808015315828586
13150687 139 18341899571734736310
13590594 115 17691406738686387019
13692114 37 18129084771004309598
138480 1 17690281512782850631
14190465 44 18195799885878988240
14675020 138 18270381820225524168
14790565 3 18411700997550282333
15131766 46 15649606980670396908
15250474 111 18198326374672907341
15400415 2 18410856530066590357
15484559 13 18268999687233495262
15664445 248 17908992002046028166
15927050 60 18410012144075916174
16728300 4 17172340128775659848
16993438 75 18194404630575037770
17138139 8 17844505873094750589
18365409 1 18266178516712002855
18681886 176 18269547252746119218
19301676 85 18125180255745609246
19319366 153 18341605993587463063
20028762 73 18127971897997175870
20197701 30 18410293618508541420
21033648 29 18411976996739668248
21049683 118 18267279071789952632
21133410 52 18050823560264305355
21133410 62 18118097360732128303
21133410 90 16625763337811289963
21641784 216 17255982580544982524
21796203 349 17186478666592083243
23559900 14 17840860785900960817
23576562 1 18045233880183706140
23929065 36 17839160150766657112
335352 9 18411704280007882420
3493558 16 17104804116454401276
38695281 34 18410575067504510145
4058900 60 18335991873883237489
4258327 124 17751938045251361788
4409770 3 18265902547377209763
59755656 520 18409442618210229236
613672 6 16895092636450194143
9658208 31 18271237339646843112
9981440 41 18335425664349942713

> <PUBCHEM_SHAPE_MULTIPOLES>
614.56
12.46
7.12
1.18
1.23
10.25
0.28
-17.49
-2.78
1.87
0.91
0.21
1.56
-0.74

> <PUBCHEM_SHAPE_SELFOVERLAP>
1370.499

> <PUBCHEM_SHAPE_VOLUME>
323.9

> <PUBCHEM_COORDINATE_TYPE>
2
5
10

$$$$
