12978217
  -OEChem-11232108543D

 34 34  0     1  0  0  0  0  0999 V2000
   -1.1462   -0.2156   -1.6393 O   0  0  0  0  0  0  0  0  0  0  0  0
    1.1288   -1.1566    0.1108 C   0  0  0  0  0  0  0  0  0  0  0  0
    0.2851    0.1476    0.2311 C   0  0  1  0  0  0  0  0  0  0  0  0
    1.0085    1.3936   -0.3436 C   0  0  2  0  0  0  0  0  0  0  0  0
    2.4816   -0.9318    0.8404 C   0  0  0  0  0  0  0  0  0  0  0  0
    0.4083   -2.3374    0.7947 C   0  0  0  0  0  0  0  0  0  0  0  0
    1.3934   -1.5488   -1.3609 C   0  0  0  0  0  0  0  0  0  0  0  0
    2.4822    1.4116   -0.0234 C   0  0  0  0  0  0  0  0  0  0  0  0
    3.1371    0.3769    0.5183 C   0  0  0  0  0  0  0  0  0  0  0  0
   -1.0576   -0.0042   -0.4318 C   0  0  0  0  0  0  0  0  0  0  0  0
    0.3578    2.6825    0.1761 C   0  0  0  0  0  0  0  0  0  0  0  0
   -2.2572    0.1075    0.4431 C   0  0  0  0  0  0  0  0  0  0  0  0
   -3.4891   -0.0144   -0.0681 C   0  0  0  0  0  0  0  0  0  0  0  0
   -4.7327    0.0892    0.7528 C   0  0  0  0  0  0  0  0  0  0  0  0
    0.1233    0.3232    1.3051 H   0  0  0  0  0  0  0  0  0  0  0  0
    0.9175    1.4080   -1.4378 H   0  0  0  0  0  0  0  0  0  0  0  0
    3.1765   -1.7445    0.5939 H   0  0  0  0  0  0  0  0  0  0  0  0
    2.3373   -0.9688    1.9281 H   0  0  0  0  0  0  0  0  0  0  0  0
    1.0393   -3.2338    0.7947 H   0  0  0  0  0  0  0  0  0  0  0  0
   -0.5254   -2.5962    0.2839 H   0  0  0  0  0  0  0  0  0  0  0  0
    0.1651   -2.1032    1.8371 H   0  0  0  0  0  0  0  0  0  0  0  0
    1.7904   -0.7211   -1.9554 H   0  0  0  0  0  0  0  0  0  0  0  0
    0.4961   -1.9280   -1.8587 H   0  0  0  0  0  0  0  0  0  0  0  0
    2.1297   -2.3605   -1.4132 H   0  0  0  0  0  0  0  0  0  0  0  0
    3.0400    2.3157   -0.2540 H   0  0  0  0  0  0  0  0  0  0  0  0
    4.1961    0.4764    0.7382 H   0  0  0  0  0  0  0  0  0  0  0  0
    0.8597    3.5676   -0.2314 H   0  0  0  0  0  0  0  0  0  0  0  0
   -0.6946    2.7429   -0.1192 H   0  0  0  0  0  0  0  0  0  0  0  0
    0.4079    2.7445    1.2691 H   0  0  0  0  0  0  0  0  0  0  0  0
   -2.1044    0.2910    1.5006 H   0  0  0  0  0  0  0  0  0  0  0  0
   -3.6326   -0.1976   -1.1295 H   0  0  0  0  0  0  0  0  0  0  0  0
   -4.5184    0.2743    1.8101 H   0  0  0  0  0  0  0  0  0  0  0  0
   -5.3062   -0.8398    0.6786 H   0  0  0  0  0  0  0  0  0  0  0  0
   -5.3559    0.9089    0.3825 H   0  0  0  0  0  0  0  0  0  0  0  0
  1 10  2  0  0  0  0
  2  3  1  0  0  0  0
  2  5  1  0  0  0  0
  2  6  1  0  0  0  0
  2  7  1  0  0  0  0
  3  4  1  0  0  0  0
  3 10  1  0  0  0  0
  3 15  1  0  0  0  0
  4  8  1  0  0  0  0
  4 11  1  0  0  0  0
  4 16  1  0  0  0  0
  5  9  1  0  0  0  0
  5 17  1  0  0  0  0
  5 18  1  0  0  0  0
  6 19  1  0  0  0  0
  6 20  1  0  0  0  0
  6 21  1  0  0  0  0
  7 22  1  0  0  0  0
  7 23  1  0  0  0  0
  7 24  1  0  0  0  0
  8  9  2  0  0  0  0
  8 25  1  0  0  0  0
  9 26  1  0  0  0  0
 10 12  1  0  0  0  0
 11 27  1  0  0  0  0
 11 28  1  0  0  0  0
 11 29  1  0  0  0  0
 12 13  2  0  0  0  0
 12 30  1  0  0  0  0
 13 14  1  0  0  0  0
 13 31  1  0  0  0  0
 14 32  1  0  0  0  0
 14 33  1  0  0  0  0
 14 34  1  0  0  0  0
M  END
> <PUBCHEM_COMPOUND_CID>
12978217

> <PUBCHEM_CONFORMER_RMSD>
0.6

> <PUBCHEM_CONFORMER_DIVERSEORDER>
3
4
10
8
6
7
2
11
1
9
5

> <PUBCHEM_MMFF94_PARTIAL_CHARGES>
14
1 -0.57
10 0.49
12 -0.14
13 -0.29
14 0.14
25 0.15
26 0.15
3 0.06
30 0.15
31 0.15
4 0.14
5 0.14
8 -0.29
9 -0.29

> <PUBCHEM_EFFECTIVE_ROTOR_COUNT>
2.8

> <PUBCHEM_PHARMACOPHORE_FEATURES>
4
1 1 acceptor
1 14 hydrophobe
3 2 6 7 hydrophobe
6 2 3 4 5 8 9 rings

> <PUBCHEM_HEAVY_ATOM_COUNT>
14

> <PUBCHEM_ATOM_DEF_STEREO_COUNT>
2

> <PUBCHEM_ATOM_UDEF_STEREO_COUNT>
0

> <PUBCHEM_BOND_DEF_STEREO_COUNT>
1

> <PUBCHEM_BOND_UDEF_STEREO_COUNT>
0

> <PUBCHEM_ISOTOPIC_ATOM_COUNT>
0

> <PUBCHEM_COMPONENT_COUNT>
1

> <PUBCHEM_CACTVS_TAUTO_COUNT>
5

> <PUBCHEM_CONFORMER_ID>
00C6082900000003

> <PUBCHEM_MMFF94_ENERGY>
28.7274

> <PUBCHEM_FEATURE_SELFOVERLAP>
20.297

> <PUBCHEM_SHAPE_FINGERPRINT>
10219947 1 18410007741016194680
10980938 120 18412545414048377853
11067466 332 17968104092238700702
11471102 20 18408035217398732941
12346645 6 18202285788072496599
12423570 1 11092737066583896606
14251717 144 18408317804967184587
14252887 29 18343029852313138947
14817 1 17109901469941338886
15219456 202 17895181182744827021
15501101 241 18040155119503572757
15775835 57 17988359372617890457
161256 15 18127698136491221076
16945 1 18115851027725078660
17844478 74 17749100080584165445
20511035 2 17978230787841409656
20559304 39 18272658939208749449
20606313 2 18409729568906355401
20645477 70 18339919330108522703
20871998 22 18197784297295394742
21041028 32 18197494030836997432
21501502 16 18046061824506034194
21524375 3 18051971721017226397
2748010 2 17908405971322869366
276578 36 16988566796808940751
3060560 45 18131075947659294476
528862 383 18408599279479515643
528886 8 18340762736640580576
568465 68 17968391099185900179
77492 1 17917418861229942453
8272917 22 18411708660298919825

> <PUBCHEM_SHAPE_MULTIPOLES>
282.24
5.6
2.17
1.09
7.34
0.43
0.32
0.37
-1.51
-1.36
-0.16
-0.03
-0.36
-0.01

> <PUBCHEM_SHAPE_SELFOVERLAP>
563.475

> <PUBCHEM_SHAPE_VOLUME>
165.9

> <PUBCHEM_COORDINATE_TYPE>
2
5
10

$$$$
