12980878
  -OEChem-11232109263D

 24 24  0     1  0  0  0  0  0999 V2000
   -0.4757   -0.2396    1.0868 S   0  0  0  0  0  0  0  0  0  0  0  0
    3.2003    0.0788   -0.2939 O   0  0  0  0  0  0  0  0  0  0  0  0
   -3.5058   -1.0638   -0.2417 O   0  0  0  0  0  0  0  0  0  0  0  0
   -1.4827    0.2500   -0.3458 C   0  0  1  0  0  0  0  0  0  0  0  0
    1.1226    0.2056    0.4218 C   0  0  0  0  0  0  0  0  0  0  0  0
   -1.0573   -0.5289   -1.5832 C   0  0  0  0  0  0  0  0  0  0  0  0
   -2.9435    0.0058   -0.0039 C   0  0  0  0  0  0  0  0  0  0  0  0
    2.1622   -0.6270    0.2259 C   0  0  0  0  0  0  0  0  0  0  0  0
    1.4775    1.4866    0.0249 C   0  0  0  0  0  0  0  0  0  0  0  0
   -3.6811    1.1302    0.6802 C   0  0  0  0  0  0  0  0  0  0  0  0
    2.4079   -2.0617    0.4422 C   0  0  0  0  0  0  0  0  0  0  0  0
    2.7755    1.3641   -0.4133 C   0  0  0  0  0  0  0  0  0  0  0  0
   -1.3664    1.3212   -0.5447 H   0  0  0  0  0  0  0  0  0  0  0  0
   -1.0547   -1.6116   -1.4105 H   0  0  0  0  0  0  0  0  0  0  0  0
   -0.0708   -0.2334   -1.9520 H   0  0  0  0  0  0  0  0  0  0  0  0
   -1.7629   -0.3441   -2.4023 H   0  0  0  0  0  0  0  0  0  0  0  0
    0.8979    2.3985    0.0429 H   0  0  0  0  0  0  0  0  0  0  0  0
   -3.6616    2.0201    0.0462 H   0  0  0  0  0  0  0  0  0  0  0  0
   -4.7230    0.8402    0.8424 H   0  0  0  0  0  0  0  0  0  0  0  0
   -3.2207    1.3454    1.6472 H   0  0  0  0  0  0  0  0  0  0  0  0
    3.4144   -2.3501    0.1226 H   0  0  0  0  0  0  0  0  0  0  0  0
    2.3069   -2.3132    1.5025 H   0  0  0  0  0  0  0  0  0  0  0  0
    1.6906   -2.6638   -0.1243 H   0  0  0  0  0  0  0  0  0  0  0  0
    3.4972    2.0592   -0.8169 H   0  0  0  0  0  0  0  0  0  0  0  0
  1  4  1  0  0  0  0
  1  5  1  0  0  0  0
  2  8  1  0  0  0  0
  2 12  1  0  0  0  0
  3  7  2  0  0  0  0
  4  6  1  0  0  0  0
  4  7  1  0  0  0  0
  4 13  1  0  0  0  0
  5  8  2  0  0  0  0
  5  9  1  0  0  0  0
  6 14  1  0  0  0  0
  6 15  1  0  0  0  0
  6 16  1  0  0  0  0
  7 10  1  0  0  0  0
  8 11  1  0  0  0  0
  9 12  2  0  0  0  0
  9 17  1  0  0  0  0
 10 18  1  0  0  0  0
 10 19  1  0  0  0  0
 10 20  1  0  0  0  0
 11 21  1  0  0  0  0
 11 22  1  0  0  0  0
 11 23  1  0  0  0  0
 12 24  1  0  0  0  0
M  END
> <PUBCHEM_COMPOUND_CID>
12980878

> <PUBCHEM_CONFORMER_RMSD>
0.6

> <PUBCHEM_CONFORMER_DIVERSEORDER>
1
32
30
21
38
11
13
33
40
24
19
28
35
15
22
37
10
39
20
29
25
17
34
31
36
14
5
23
7
12
27
26
3
6
18
8
9
2
16
4

> <PUBCHEM_MMFF94_PARTIAL_CHARGES>
13
1 -0.28
10 0.06
11 0.18
12 -0.01
17 0.15
2 -0.28
24 0.15
3 -0.57
4 0.29
5 0.05
7 0.45
8 -0.04
9 -0.15

> <PUBCHEM_EFFECTIVE_ROTOR_COUNT>
3

> <PUBCHEM_PHARMACOPHORE_FEATURES>
4
1 2 acceptor
1 3 acceptor
1 6 hydrophobe
5 2 5 8 9 12 rings

> <PUBCHEM_HEAVY_ATOM_COUNT>
12

> <PUBCHEM_ATOM_DEF_STEREO_COUNT>
0

> <PUBCHEM_ATOM_UDEF_STEREO_COUNT>
1

> <PUBCHEM_BOND_DEF_STEREO_COUNT>
0

> <PUBCHEM_BOND_UDEF_STEREO_COUNT>
0

> <PUBCHEM_ISOTOPIC_ATOM_COUNT>
0

> <PUBCHEM_COMPONENT_COUNT>
1

> <PUBCHEM_CACTVS_TAUTO_COUNT>
3

> <PUBCHEM_CONFORMER_ID>
00C6128E00000001

> <PUBCHEM_MMFF94_ENERGY>
14.4657

> <PUBCHEM_FEATURE_SELFOVERLAP>
20.297

> <PUBCHEM_SHAPE_FINGERPRINT>
10751810 167 17989216953217446717
10857977 72 15140682492577304197
10980938 120 18407759248448756952
11031198 65 18260276269331751356
12932764 1 17632007645750395937
13296908 3 14117794756230332797
14144814 61 18202562878103908233
14325111 11 18410575097875093481
15310529 11 18341609334713368341
15775835 57 18272374191171404061
17844478 74 17167863036911161301
18186145 218 18187364307298038811
19422 9 18413107260295417891
19786989 88 17749668605552680612
20201158 50 18113056043138999138
20233049 118 17346599655670177624
20279233 1 16298380279953130947
20645476 183 18059857298252538359
20645477 70 18262228937590249271
20711983 171 18273217486978791853
20871998 22 18051973624231193770
22802520 49 17533199878690979420
23402539 116 16877929577588348846
23402655 69 18335702719526029141
23598291 2 18342172224437196351
25 1 18260834821307304712
3248919 1 18336252518463358179

> <PUBCHEM_SHAPE_MULTIPOLES>
239.07
6.08
1.58
1.05
3.23
0.22
-0.19
-0.26
0.19
-1.05
0.09
0.36
0.12
-0.66

> <PUBCHEM_SHAPE_SELFOVERLAP>
470.765

> <PUBCHEM_SHAPE_VOLUME>
145.7

> <PUBCHEM_COORDINATE_TYPE>
2
5
10

$$$$
