13013009
  -OEChem-11232109033D

 25 25  0     0  0  0  0  0  0999 V2000
   -2.1779   -0.4861   -0.1092 O   0  0  0  0  0  0  0  0  0  0  0  0
    0.7057    2.4078   -0.3733 O   0  0  0  0  0  0  0  0  0  0  0  0
   -1.7433    1.6602    0.6003 O   0  0  0  0  0  0  0  0  0  0  0  0
    0.0517    0.1587    0.1437 C   0  0  0  0  0  0  0  0  0  0  0  0
    2.7244   -0.6194   -0.0416 C   0  0  0  0  0  0  0  0  0  0  0  0
    1.0330    1.1017   -0.1619 C   0  0  0  0  0  0  0  0  0  0  0  0
    2.3693    0.7126   -0.2544 C   0  0  0  0  0  0  0  0  0  0  0  0
    0.4066   -1.1733    0.3568 C   0  0  0  0  0  0  0  0  0  0  0  0
    1.7430   -1.5625    0.2639 C   0  0  0  0  0  0  0  0  0  0  0  0
   -1.3494    0.5433    0.2433 C   0  0  0  0  0  0  0  0  0  0  0  0
    4.1530   -1.0355   -0.1392 C   0  0  0  0  0  0  0  0  0  0  0  0
   -3.5853   -0.2298   -0.0531 C   0  0  0  0  0  0  0  0  0  0  0  0
   -4.3309   -1.4777   -0.4754 C   0  0  0  0  0  0  0  0  0  0  0  0
    3.1305    1.4522   -0.4909 H   0  0  0  0  0  0  0  0  0  0  0  0
   -0.3318   -1.9294    0.6102 H   0  0  0  0  0  0  0  0  0  0  0  0
    2.0079   -2.6023    0.4369 H   0  0  0  0  0  0  0  0  0  0  0  0
    4.6938   -0.4227   -0.8685 H   0  0  0  0  0  0  0  0  0  0  0  0
    4.6411   -0.9342    0.8352 H   0  0  0  0  0  0  0  0  0  0  0  0
    4.2404   -2.0765   -0.4687 H   0  0  0  0  0  0  0  0  0  0  0  0
   -3.8649    0.0416    0.9708 H   0  0  0  0  0  0  0  0  0  0  0  0
   -3.8315    0.5969   -0.7286 H   0  0  0  0  0  0  0  0  0  0  0  0
   -5.4121   -1.3170   -0.4437 H   0  0  0  0  0  0  0  0  0  0  0  0
   -4.0465   -1.7713   -1.4912 H   0  0  0  0  0  0  0  0  0  0  0  0
   -4.0787   -2.3176    0.1804 H   0  0  0  0  0  0  0  0  0  0  0  0
   -0.2559    2.5310   -0.3339 H   0  0  0  0  0  0  0  0  0  0  0  0
  1 10  1  0  0  0  0
  1 12  1  0  0  0  0
  2  6  1  0  0  0  0
  2 25  1  0  0  0  0
  3 10  2  0  0  0  0
  4  6  2  0  0  0  0
  4  8  1  0  0  0  0
  4 10  1  0  0  0  0
  5  7  2  0  0  0  0
  5  9  1  0  0  0  0
  5 11  1  0  0  0  0
  6  7  1  0  0  0  0
  7 14  1  0  0  0  0
  8  9  2  0  0  0  0
  8 15  1  0  0  0  0
  9 16  1  0  0  0  0
 11 17  1  0  0  0  0
 11 18  1  0  0  0  0
 11 19  1  0  0  0  0
 12 13  1  0  0  0  0
 12 20  1  0  0  0  0
 12 21  1  0  0  0  0
 13 22  1  0  0  0  0
 13 23  1  0  0  0  0
 13 24  1  0  0  0  0
M  END
> <PUBCHEM_COMPOUND_CID>
13013009

> <PUBCHEM_CONFORMER_RMSD>
0.6

> <PUBCHEM_CONFORMER_DIVERSEORDER>
1
5
16
2
4
3
8
10
9
11
15
6
7
14
13
12

> <PUBCHEM_MMFF94_PARTIAL_CHARGES>
16
1 -0.43
10 0.63
11 0.14
12 0.28
14 0.15
15 0.15
16 0.15
2 -0.53
25 0.45
3 -0.57
4 0.09
5 -0.14
6 0.08
7 -0.15
8 -0.15
9 -0.15

> <PUBCHEM_EFFECTIVE_ROTOR_COUNT>
3

> <PUBCHEM_PHARMACOPHORE_FEATURES>
3
1 2 donor
1 3 acceptor
6 4 5 6 7 8 9 rings

> <PUBCHEM_HEAVY_ATOM_COUNT>
13

> <PUBCHEM_ATOM_DEF_STEREO_COUNT>
0

> <PUBCHEM_ATOM_UDEF_STEREO_COUNT>
0

> <PUBCHEM_BOND_DEF_STEREO_COUNT>
0

> <PUBCHEM_BOND_UDEF_STEREO_COUNT>
0

> <PUBCHEM_ISOTOPIC_ATOM_COUNT>
0

> <PUBCHEM_COMPONENT_COUNT>
1

> <PUBCHEM_CACTVS_TAUTO_COUNT>
12

> <PUBCHEM_CONFORMER_ID>
00C6901100000001

> <PUBCHEM_MMFF94_ENERGY>
32.2456

> <PUBCHEM_FEATURE_SELFOVERLAP>
15.223

> <PUBCHEM_SHAPE_FINGERPRINT>
11471102 20 18335979865344198679
11680986 33 18191873542165153506
11769659 78 18413385423662439227
11806522 49 18411417336545584878
12032990 46 18411422778411775118
13690532 89 18409446985928529834
14128692 85 18342176661080228281
14251717 144 18335980960313049719
14252887 29 18131639967234100046
14576447 43 18410569604322356286
14993402 34 18408327683291777702
15477762 27 18410292548903507183
15757776 16 18260543403223022874
16945 1 18336277819952077656
18186145 218 17676478484853154163
19026448 4 16916785116134151738
193761 8 17832150794130294690
200 152 18413385441127196991
20201158 50 18260830405917660603
20645477 70 18338793528885869967
20671657 53 18409449184988377573
20871998 22 18270970020560385110
21501925 9 18409722963568310138
221490 88 18118128201979189203
23402539 116 18340480088974605558
23402655 69 18334573499925705165
2748010 2 18265895765665540484
7364860 26 18199185264283096632
8809292 202 18114468958557238435

> <PUBCHEM_SHAPE_MULTIPOLES>
249.93
6.67
1.89
0.68
3.73
0.66
0
-3.55
0.96
-0.1
0.05
0.06
0
-0.46

> <PUBCHEM_SHAPE_SELFOVERLAP>
516.096

> <PUBCHEM_SHAPE_VOLUME>
144.1

> <PUBCHEM_COORDINATE_TYPE>
2
5
10

$$$$
