13026600
  -OEChem-11232109033D

 27 26  0     1  0  0  0  0  0999 V2000
    1.3281   -1.6593   -0.6932 O   0  0  0  0  0  0  0  0  0  0  0  0
   -1.5492    0.4159   -0.2169 O   0  0  0  0  0  0  0  0  0  0  0  0
   -1.2776   -1.8703   -0.0879 O   0  0  0  0  0  0  0  0  0  0  0  0
    1.2913    0.4144    0.5676 C   0  0  2  0  0  0  0  0  0  0  0  0
    0.6300   -0.4321   -0.5406 C   0  0  2  0  0  0  0  0  0  0  0  0
    2.7698    0.7396    0.2614 C   0  0  0  0  0  0  0  0  0  0  0  0
    1.2199   -0.2847    1.9345 C   0  0  0  0  0  0  0  0  0  0  0  0
    2.9705    1.5254   -1.0267 C   0  0  0  0  0  0  0  0  0  0  0  0
   -0.8279   -0.7427   -0.2465 C   0  0  0  0  0  0  0  0  0  0  0  0
   -2.9518    0.2636    0.0229 C   0  0  0  0  0  0  0  0  0  0  0  0
   -3.6030    1.6302    0.0253 C   0  0  0  0  0  0  0  0  0  0  0  0
    0.7450    1.3626    0.6562 H   0  0  0  0  0  0  0  0  0  0  0  0
    0.6599    0.0788   -1.5082 H   0  0  0  0  0  0  0  0  0  0  0  0
    3.1805    1.3330    1.0883 H   0  0  0  0  0  0  0  0  0  0  0  0
    3.3636   -0.1813    0.2151 H   0  0  0  0  0  0  0  0  0  0  0  0
    1.8005   -1.2124    1.9528 H   0  0  0  0  0  0  0  0  0  0  0  0
    1.6246    0.3688    2.7156 H   0  0  0  0  0  0  0  0  0  0  0  0
    0.1883   -0.5183    2.2149 H   0  0  0  0  0  0  0  0  0  0  0  0
    2.3483    2.4257   -1.0395 H   0  0  0  0  0  0  0  0  0  0  0  0
    2.7313    0.9230   -1.9076 H   0  0  0  0  0  0  0  0  0  0  0  0
    4.0166    1.8355   -1.1163 H   0  0  0  0  0  0  0  0  0  0  0  0
    1.2233   -2.1797    0.1206 H   0  0  0  0  0  0  0  0  0  0  0  0
   -3.3923   -0.3551   -0.7669 H   0  0  0  0  0  0  0  0  0  0  0  0
   -3.1055   -0.2212    0.9934 H   0  0  0  0  0  0  0  0  0  0  0  0
   -4.6784    1.5508    0.2068 H   0  0  0  0  0  0  0  0  0  0  0  0
   -3.1598    2.2667    0.7982 H   0  0  0  0  0  0  0  0  0  0  0  0
   -3.4423    2.1352   -0.9330 H   0  0  0  0  0  0  0  0  0  0  0  0
  1  5  1  0  0  0  0
  1 22  1  0  0  0  0
  2  9  1  0  0  0  0
  2 10  1  0  0  0  0
  3  9  2  0  0  0  0
  4  5  1  0  0  0  0
  4  6  1  0  0  0  0
  4  7  1  0  0  0  0
  4 12  1  0  0  0  0
  5  9  1  0  0  0  0
  5 13  1  0  0  0  0
  6  8  1  0  0  0  0
  6 14  1  0  0  0  0
  6 15  1  0  0  0  0
  7 16  1  0  0  0  0
  7 17  1  0  0  0  0
  7 18  1  0  0  0  0
  8 19  1  0  0  0  0
  8 20  1  0  0  0  0
  8 21  1  0  0  0  0
 10 11  1  0  0  0  0
 10 23  1  0  0  0  0
 10 24  1  0  0  0  0
 11 25  1  0  0  0  0
 11 26  1  0  0  0  0
 11 27  1  0  0  0  0
M  END
> <PUBCHEM_COMPOUND_CID>
13026600

> <PUBCHEM_CONFORMER_RMSD>
0.6

> <PUBCHEM_CONFORMER_DIVERSEORDER>
3
45
13
2
28
245
244
142
135
117
179
190
256
62
141
74
305
139
132
68
242
253
289
186
112
211
299
122
301
94
273
36
124
231
160
47
120
167
258
20
226
153
109
31
261
33
43
248
151
268
77
302
81
131
12
163
218
96
240
140
181
143
267
187
295
159
250
88
287
263
6
114
18
27
164
39
128
209
288
217
1
207
52
283
165
29
92
118
229
284
54
157
290
291
76
185
279
41
91
101
200
171
58
241
224
136
166
154
130
168
180
104
199
73
98
19
196
105
155
300
78
113
234
25
175
304
174
14
126
232
64
247
195
56
5
184
107
210
115
90
208
89
16
276
285
294
23
219
296
215
198
30
238
265
51
257
66
293
303
221
72
65
252
46
55
243
60
9
173
57
202
169
280
102
275
121
80
203
103
278
286
127
227
37
24
111
255
87
214
85
216
230
306
38
272
223
212
152
69
106
225
75
182
298
53
125
197
239
269
42
237
228
86
251
277
271
172
144
59
292
170
254
259
162
177
270
150
63
145
7
67
93
282
35
146
99
138
158
262
147
260
48
95
108
50
129
281
188
10
249
137
235
17
133
201
26
82
191
222
264
119
233
49
161
148
193
44
189
204
220
246
205
274
183
134
8
70
110
61
156
149
192
4
178
266
84
213
97
21
83
297
40
71
236
34
194
116
79
100
206
22
15
176
11
123
32

> <PUBCHEM_MMFF94_PARTIAL_CHARGES>
7
1 -0.68
10 0.28
2 -0.43
22 0.4
3 -0.57
5 0.34
9 0.66

> <PUBCHEM_EFFECTIVE_ROTOR_COUNT>
5

> <PUBCHEM_PHARMACOPHORE_FEATURES>
5
1 1 acceptor
1 1 donor
1 3 acceptor
1 7 hydrophobe
1 8 hydrophobe

> <PUBCHEM_HEAVY_ATOM_COUNT>
11

> <PUBCHEM_ATOM_DEF_STEREO_COUNT>
0

> <PUBCHEM_ATOM_UDEF_STEREO_COUNT>
2

> <PUBCHEM_BOND_DEF_STEREO_COUNT>
0

> <PUBCHEM_BOND_UDEF_STEREO_COUNT>
0

> <PUBCHEM_ISOTOPIC_ATOM_COUNT>
0

> <PUBCHEM_COMPONENT_COUNT>
1

> <PUBCHEM_CACTVS_TAUTO_COUNT>
1

> <PUBCHEM_CONFORMER_ID>
00C6C52800000003

> <PUBCHEM_MMFF94_ENERGY>
7.4292

> <PUBCHEM_FEATURE_SELFOVERLAP>
25.379

> <PUBCHEM_SHAPE_FINGERPRINT>
10149128 111 18410576184407283093
11031198 65 17917996070269051679
12932764 1 17203600498066965239
13380535 21 18271257083184085159
13705890 14 14333405679275744596
13839132 238 18410578387709311535
14325111 11 18341049632066452733
15775835 57 18114465664317250740
170605 34 18186805785329539440
201361 129 17821725031264707944
20233049 118 18271799108188969336
20653085 51 18191040086713695452
20711983 171 18337956804494210332
21040471 1 18201145620342513619
230 275 18198048189045111321
23235685 24 18343013398119328505
23380061 81 18267592303781229169
5084963 1 18057882442346203465

> <PUBCHEM_SHAPE_MULTIPOLES>
208.77
5.18
1.69
1.17
2.87
0.12
0.54
-3.47
-0.3
0.21
-0.39
-0.81
0.12
-0.44

> <PUBCHEM_SHAPE_SELFOVERLAP>
386.756

> <PUBCHEM_SHAPE_VOLUME>
132.3

> <PUBCHEM_COORDINATE_TYPE>
2
5
10

$$$$
