13213649
  -OEChem-11232109023D

 42 42  0     1  0  0  0  0  0999 V2000
   -4.8723   -0.5686    0.4867 O   0  0  0  0  0  0  0  0  0  0  0  0
   -0.8902    0.5484    0.8634 C   0  0  1  0  0  0  0  0  0  0  0  0
    0.5726    0.5723    0.4189 C   0  0  1  0  0  0  0  0  0  0  0  0
   -1.7464    1.3973   -0.0928 C   0  0  0  0  0  0  0  0  0  0  0  0
   -3.2350    1.1267    0.1109 C   0  0  0  0  0  0  0  0  0  0  0  0
   -3.5899   -0.3552   -0.1121 C   0  0  1  0  0  0  0  0  0  0  0  0
   -1.3910   -0.8681    0.9866 C   0  0  0  0  0  0  0  0  0  0  0  0
    0.7777   -0.0863   -0.9601 C   0  0  0  0  0  0  0  0  0  0  0  0
   -2.5896   -1.2739    0.5425 C   0  0  0  0  0  0  0  0  0  0  0  0
    1.0733    2.0189    0.3760 C   0  0  0  0  0  0  0  0  0  0  0  0
   -3.7079   -0.6869   -1.6032 C   0  0  0  0  0  0  0  0  0  0  0  0
    2.2309   -0.1451   -1.4516 C   0  0  0  0  0  0  0  0  0  0  0  0
    3.1385   -0.8665   -0.4945 C   0  0  0  0  0  0  0  0  0  0  0  0
    4.2795   -0.4261    0.0690 C   0  0  0  0  0  0  0  0  0  0  0  0
    5.0473   -1.3089    1.0176 C   0  0  0  0  0  0  0  0  0  0  0  0
    4.9025    0.9220   -0.1572 C   0  0  0  0  0  0  0  0  0  0  0  0
   -0.9576    0.9897    1.8677 H   0  0  0  0  0  0  0  0  0  0  0  0
    1.1642    0.0335    1.1706 H   0  0  0  0  0  0  0  0  0  0  0  0
   -1.5201    1.2261   -1.1473 H   0  0  0  0  0  0  0  0  0  0  0  0
   -1.5681    2.4633    0.0933 H   0  0  0  0  0  0  0  0  0  0  0  0
   -3.5194    1.4280    1.1291 H   0  0  0  0  0  0  0  0  0  0  0  0
   -3.8279    1.7664   -0.5553 H   0  0  0  0  0  0  0  0  0  0  0  0
   -0.7481   -1.5928    1.4800 H   0  0  0  0  0  0  0  0  0  0  0  0
    0.2160    0.4342   -1.7418 H   0  0  0  0  0  0  0  0  0  0  0  0
    0.3920   -1.1133   -0.9413 H   0  0  0  0  0  0  0  0  0  0  0  0
   -2.8654   -2.3184    0.6643 H   0  0  0  0  0  0  0  0  0  0  0  0
    0.7873    2.5622    1.2834 H   0  0  0  0  0  0  0  0  0  0  0  0
    2.1655    2.0533    0.3253 H   0  0  0  0  0  0  0  0  0  0  0  0
    0.6908    2.5697   -0.4897 H   0  0  0  0  0  0  0  0  0  0  0  0
   -4.4484   -0.0418   -2.0902 H   0  0  0  0  0  0  0  0  0  0  0  0
   -2.7543   -0.5747   -2.1295 H   0  0  0  0  0  0  0  0  0  0  0  0
   -4.0580   -1.7162   -1.7471 H   0  0  0  0  0  0  0  0  0  0  0  0
    2.5788    0.8646   -1.6813 H   0  0  0  0  0  0  0  0  0  0  0  0
    2.2498   -0.6899   -2.4040 H   0  0  0  0  0  0  0  0  0  0  0  0
   -5.5097    0.0222    0.0500 H   0  0  0  0  0  0  0  0  0  0  0  0
    2.8095   -1.8762   -0.2498 H   0  0  0  0  0  0  0  0  0  0  0  0
    5.1336   -0.8269    1.9970 H   0  0  0  0  0  0  0  0  0  0  0  0
    4.5651   -2.2806    1.1680 H   0  0  0  0  0  0  0  0  0  0  0  0
    6.0547   -1.4950    0.6310 H   0  0  0  0  0  0  0  0  0  0  0  0
    4.9221    1.4881    0.7800 H   0  0  0  0  0  0  0  0  0  0  0  0
    5.9333    0.8043   -0.5087 H   0  0  0  0  0  0  0  0  0  0  0  0
    4.3810    1.5297   -0.8987 H   0  0  0  0  0  0  0  0  0  0  0  0
  1  6  1  0  0  0  0
  1 35  1  0  0  0  0
  2  3  1  0  0  0  0
  2  4  1  0  0  0  0
  2  7  1  0  0  0  0
  2 17  1  0  0  0  0
  3  8  1  0  0  0  0
  3 10  1  0  0  0  0
  3 18  1  0  0  0  0
  4  5  1  0  0  0  0
  4 19  1  0  0  0  0
  4 20  1  0  0  0  0
  5  6  1  0  0  0  0
  5 21  1  0  0  0  0
  5 22  1  0  0  0  0
  6  9  1  0  0  0  0
  6 11  1  0  0  0  0
  7  9  2  0  0  0  0
  7 23  1  0  0  0  0
  8 12  1  0  0  0  0
  8 24  1  0  0  0  0
  8 25  1  0  0  0  0
  9 26  1  0  0  0  0
 10 27  1  0  0  0  0
 10 28  1  0  0  0  0
 10 29  1  0  0  0  0
 11 30  1  0  0  0  0
 11 31  1  0  0  0  0
 11 32  1  0  0  0  0
 12 13  1  0  0  0  0
 12 33  1  0  0  0  0
 12 34  1  0  0  0  0
 13 14  2  0  0  0  0
 13 36  1  0  0  0  0
 14 15  1  0  0  0  0
 14 16  1  0  0  0  0
 15 37  1  0  0  0  0
 15 38  1  0  0  0  0
 15 39  1  0  0  0  0
 16 40  1  0  0  0  0
 16 41  1  0  0  0  0
 16 42  1  0  0  0  0
M  END
> <PUBCHEM_COMPOUND_CID>
13213649

> <PUBCHEM_CONFORMER_RMSD>
0.6

> <PUBCHEM_CONFORMER_DIVERSEORDER>
31
178
228
108
15
226
248
285
124
269
185
193
110
227
88
256
200
276
149
283
46
172
99
63
244
208
205
189
93
265
223
288
90
201
14
245
101
157
250
153
64
231
73
204
165
261
289
281
59
206
181
20
79
199
255
164
195
242
94
239
102
162
203
28
182
98
271
166
247
191
274
215
148
29
8
251
268
55
18
190
275
62
175
100
143
258
209
266
137
152
291
160
233
107
159
11
218
96
279
267
249
16
142
264
174
52
286
176
214
82
273
246
263
202
212
40
252
232
210
284
287
86
207
179
270
254
121
77
229
71
84
230
114
21
113
169
197
135
133
127
180
23
235
83
171
219
139
290
26
57
43
170
97
129
222
259
241
44
234
224
282
155
24
37
167
104
115
161
216
75
111
105
136
56
134
211
150
187
33
168
158
10
237
41
173
196
36
278
163
91
12
6
87
194
243
30
92
141
183
1
118
132
225
50
257
109
45
80
19
277
72
89
184
68
131
272
130
156
60
58
253
192
198
177
51
151
5
125
78
74
34
260
140
7
70
53
145
213
65
49
32
220
238
120
54
221
106
186
240
154
17
9
128
147
85
236
81
217
116
188
42
117
112
67
27
262
35
146
38
25
123
76
95
144
61
122
22
103
280
138
69
2
126
66
119
3
48
39
47
4
13

> <PUBCHEM_MMFF94_PARTIAL_CHARGES>
14
1 -0.68
12 0.14
13 -0.29
14 -0.28
15 0.14
16 0.14
2 0.14
23 0.15
26 0.15
35 0.4
36 0.15
6 0.42
7 -0.29
9 -0.29

> <PUBCHEM_EFFECTIVE_ROTOR_COUNT>
4.8

> <PUBCHEM_PHARMACOPHORE_FEATURES>
6
1 1 acceptor
1 1 donor
1 10 hydrophobe
3 14 15 16 hydrophobe
4 3 8 12 13 hydrophobe
6 2 4 5 6 7 9 rings

> <PUBCHEM_HEAVY_ATOM_COUNT>
16

> <PUBCHEM_ATOM_DEF_STEREO_COUNT>
0

> <PUBCHEM_ATOM_UDEF_STEREO_COUNT>
3

> <PUBCHEM_BOND_DEF_STEREO_COUNT>
0

> <PUBCHEM_BOND_UDEF_STEREO_COUNT>
0

> <PUBCHEM_ISOTOPIC_ATOM_COUNT>
0

> <PUBCHEM_COMPONENT_COUNT>
1

> <PUBCHEM_CACTVS_TAUTO_COUNT>
1

> <PUBCHEM_CONFORMER_ID>
00C99FD10000001F

> <PUBCHEM_MMFF94_ENERGY>
24.9568

> <PUBCHEM_FEATURE_SELFOVERLAP>
30.472

> <PUBCHEM_SHAPE_FINGERPRINT>
10062212 137 18337106774531504043
10465860 250 18411135810171763128
10922049 32 11095887068676537020
11045977 3 14836117784315345414
11132069 177 17060334115772072126
11401426 45 18202563969083636655
11615757 297 16702024197023439472
12815109 37 18272090504223076503
12916748 109 14996286928603712575
13214271 11 12247676076401525185
13533116 47 18259983743626150202
13549 16 15791731893089620782
13675066 3 15502383335177033204
13897977 58 11312049959074378307
14115302 16 17822302313307672359
14251751 93 15864067689334158675
14289901 80 17632302237726098458
14943859 89 7781511508236284452
15375358 24 17989210300159955741
17349148 13 18409452470796607982
17834072 14 18412547604534322884
17834072 8 13623531238588576266
18186145 218 12324250485691775582
18222031 100 17917994979933018332
19784866 170 11455899065689532243
19862831 5 14706927349878961364
200 152 18202002135573759928
20374829 77 18412824707640618607
20621476 91 17630864145041733098
20645476 183 16443341009777528571
20645477 70 17749111063417090402
20671657 53 18334860532163114500
21501925 9 18273500074214823588
22079108 93 14476666534200889934
22485316 2 17846781780137998111
22854114 59 16056876919057584682
23402539 116 18261108535046211053
23532345 42 17918273143347447476
23557571 272 17916882218057100428
23559900 14 18187365450461024648
25 1 12035442839875676512
296302 2 18343024389093444412
347723 3 17894909603610071481
474 4 14332826224264100090
4990 188 14345797153850900098
5283173 99 18188762851724349708
5374978 207 18412825781382260904
573450 72 18261108526477089632
633830 44 13118288096241517870
6442390 28 15195277669076597838
76465 3 18342167895126051127
81228 2 17911266947607283160
9709674 26 18338807710572566406
9882013 296 17346883347182185686

> <PUBCHEM_SHAPE_MULTIPOLES>
323.4
10.23
1.54
1.21
5.78
0.46
-0.31
-2.8
0.3
0.17
0.24
-0.11
-0.28
-0.35

> <PUBCHEM_SHAPE_SELFOVERLAP>
634.288

> <PUBCHEM_SHAPE_VOLUME>
194

> <PUBCHEM_COORDINATE_TYPE>
2
5
10

$$$$
