13353282
  -OEChem-11232108513D

 19 18  0     1  0  0  0  0  0999 V2000
    2.4081    0.6092   -0.7811 S   0  0  0  0  0  0  0  0  0  0  0  0
   -1.1210    1.5864    0.2293 O   0  0  0  0  0  0  0  0  0  0  0  0
    0.1218   -0.4872    0.5184 C   0  0  2  0  0  0  0  0  0  0  0  0
   -0.9384    0.2766   -0.3104 C   0  0  1  0  0  0  0  0  0  0  0  0
    1.4304    0.3090    0.7247 C   0  0  0  0  0  0  0  0  0  0  0  0
    0.4002   -1.8845   -0.0479 C   0  0  0  0  0  0  0  0  0  0  0  0
   -2.3011   -0.4096   -0.3330 C   0  0  0  0  0  0  0  0  0  0  0  0
   -0.2922   -0.6214    1.5282 H   0  0  0  0  0  0  0  0  0  0  0  0
   -0.5883    0.3976   -1.3419 H   0  0  0  0  0  0  0  0  0  0  0  0
    2.0761   -0.2307    1.4268 H   0  0  0  0  0  0  0  0  0  0  0  0
    1.2158    1.2800    1.1829 H   0  0  0  0  0  0  0  0  0  0  0  0
    0.6445   -1.8522   -1.1144 H   0  0  0  0  0  0  0  0  0  0  0  0
    1.2303   -2.3642    0.4818 H   0  0  0  0  0  0  0  0  0  0  0  0
   -0.4725   -2.5344    0.0722 H   0  0  0  0  0  0  0  0  0  0  0  0
   -3.0343    0.2099   -0.8614 H   0  0  0  0  0  0  0  0  0  0  0  0
   -2.6840   -0.5491    0.6839 H   0  0  0  0  0  0  0  0  0  0  0  0
   -2.2600   -1.3821   -0.8308 H   0  0  0  0  0  0  0  0  0  0  0  0
   -1.7450    2.0588   -0.3478 H   0  0  0  0  0  0  0  0  0  0  0  0
    2.7358   -0.6695   -1.0167 H   0  0  0  0  0  0  0  0  0  0  0  0
  1  5  1  0  0  0  0
  1 19  1  0  0  0  0
  2  4  1  0  0  0  0
  2 18  1  0  0  0  0
  3  4  1  0  0  0  0
  3  5  1  0  0  0  0
  3  6  1  0  0  0  0
  3  8  1  0  0  0  0
  4  7  1  0  0  0  0
  4  9  1  0  0  0  0
  5 10  1  0  0  0  0
  5 11  1  0  0  0  0
  6 12  1  0  0  0  0
  6 13  1  0  0  0  0
  6 14  1  0  0  0  0
  7 15  1  0  0  0  0
  7 16  1  0  0  0  0
  7 17  1  0  0  0  0
M  END
> <PUBCHEM_COMPOUND_CID>
13353282

> <PUBCHEM_CONFORMER_RMSD>
0.4

> <PUBCHEM_CONFORMER_DIVERSEORDER>
2
14
12
17
29
18
1
13
24
4
10
9
8
20
30
26
22
11
6
16
23
25
21
27
3
5
19
15
7
28

> <PUBCHEM_MMFF94_PARTIAL_CHARGES>
6
1 -0.41
18 0.4
19 0.18
2 -0.68
4 0.28
5 0.23

> <PUBCHEM_EFFECTIVE_ROTOR_COUNT>
2

> <PUBCHEM_PHARMACOPHORE_FEATURES>
3
1 2 acceptor
1 2 donor
1 6 hydrophobe

> <PUBCHEM_HEAVY_ATOM_COUNT>
7

> <PUBCHEM_ATOM_DEF_STEREO_COUNT>
0

> <PUBCHEM_ATOM_UDEF_STEREO_COUNT>
2

> <PUBCHEM_BOND_DEF_STEREO_COUNT>
0

> <PUBCHEM_BOND_UDEF_STEREO_COUNT>
0

> <PUBCHEM_ISOTOPIC_ATOM_COUNT>
0

> <PUBCHEM_COMPONENT_COUNT>
1

> <PUBCHEM_CACTVS_TAUTO_COUNT>
1

> <PUBCHEM_CONFORMER_ID>
00CBC14200000002

> <PUBCHEM_MMFF94_ENERGY>
10.786

> <PUBCHEM_FEATURE_SELFOVERLAP>
15.223

> <PUBCHEM_SHAPE_FINGERPRINT>
12897270 3 18411697694714682813
16714656 1 18338239395851090302
20096714 4 18040152929043955788
21040471 1 18338225055045018274
23552423 10 18191864526844526855
23552449 1 17906176505270603340
24536 1 18119511159862310115
29004967 10 18409442609636183459
5084963 1 17894899711968014520
5943 1 12543549290758241226

> <PUBCHEM_SHAPE_MULTIPOLES>
142.04
2.96
1.53
0.87
0.36
0.42
0.01
-0.66
0.77
-0.15
-0.02
0.29
-0.04
-0.16

> <PUBCHEM_SHAPE_SELFOVERLAP>
241.568

> <PUBCHEM_SHAPE_VOLUME>
98

> <PUBCHEM_COORDINATE_TYPE>
2
5
10

$$$$
