1339314
  -OEChem-11232109273D

 48 50  0     1  0  0  0  0  0999 V2000
    2.6783   -0.6390   -1.6203 S   0  0  0  0  0  0  0  0  0  0  0  0
   -3.7222   -2.4455    1.8072 F   0  0  0  0  0  0  0  0  0  0  0  0
    3.6032    0.4770   -1.6996 O   0  0  0  0  0  0  0  0  0  0  0  0
    2.5695   -1.5517   -2.7438 O   0  0  0  0  0  0  0  0  0  0  0  0
    0.8445    4.7987    1.5380 O   0  0  0  0  0  0  0  0  0  0  0  0
   -1.5590    0.2281   -1.9055 O   0  0  0  0  0  0  0  0  0  0  0  0
    1.0927   -0.0660   -1.1811 N   0  0  1  0  0  0  0  0  0  0  0  0
   -2.1917   -1.1563   -0.1175 N   0  0  0  0  0  0  0  0  0  0  0  0
    0.0949   -1.1113   -0.7919 C   0  0  0  0  0  0  0  0  0  0  0  0
    1.0302    1.1793   -0.4856 C   0  0  0  0  0  0  0  0  0  0  0  0
    3.1531   -1.6053   -0.2121 C   0  0  0  0  0  0  0  0  0  0  0  0
   -1.3025   -0.5866   -1.0250 C   0  0  0  0  0  0  0  0  0  0  0  0
    0.7979    2.3607   -1.1897 C   0  0  0  0  0  0  0  0  0  0  0  0
    1.1999    1.2140    0.8984 C   0  0  0  0  0  0  0  0  0  0  0  0
    2.8386   -2.9505   -0.1850 C   0  0  0  0  0  0  0  0  0  0  0  0
    3.8254   -0.9913    0.8270 C   0  0  0  0  0  0  0  0  0  0  0  0
    0.7354    3.5771   -0.5098 C   0  0  0  0  0  0  0  0  0  0  0  0
    1.1374    2.4304    1.5783 C   0  0  0  0  0  0  0  0  0  0  0  0
    0.9052    3.6120    0.8742 C   0  0  0  0  0  0  0  0  0  0  0  0
    3.2107   -3.7107    0.9238 C   0  0  0  0  0  0  0  0  0  0  0  0
    4.1977   -1.7515    1.9357 C   0  0  0  0  0  0  0  0  0  0  0  0
   -3.5837   -0.9236   -0.0110 C   0  0  0  0  0  0  0  0  0  0  0  0
    3.8902   -3.1112    1.9841 C   0  0  0  0  0  0  0  0  0  0  0  0
   -4.3114   -1.5867    0.9630 C   0  0  0  0  0  0  0  0  0  0  0  0
   -4.1882   -0.0354   -0.8850 C   0  0  0  0  0  0  0  0  0  0  0  0
   -5.6831   -1.3551    1.0658 C   0  0  0  0  0  0  0  0  0  0  0  0
   -5.5599    0.1961   -0.7822 C   0  0  0  0  0  0  0  0  0  0  0  0
   -6.3073   -0.4636    0.1932 C   0  0  0  0  0  0  0  0  0  0  0  0
    0.6041    5.9680    0.7566 C   0  0  0  0  0  0  0  0  0  0  0  0
    0.2049   -1.9921   -1.4335 H   0  0  0  0  0  0  0  0  0  0  0  0
    0.2410   -1.4115    0.2504 H   0  0  0  0  0  0  0  0  0  0  0  0
    0.6653    2.3431   -2.2685 H   0  0  0  0  0  0  0  0  0  0  0  0
    1.3639    0.3070    1.4720 H   0  0  0  0  0  0  0  0  0  0  0  0
    2.3076   -3.4353   -0.9980 H   0  0  0  0  0  0  0  0  0  0  0  0
    4.0754    0.0647    0.8085 H   0  0  0  0  0  0  0  0  0  0  0  0
    0.5522    4.4561   -1.1183 H   0  0  0  0  0  0  0  0  0  0  0  0
    1.2666    2.4508    2.6570 H   0  0  0  0  0  0  0  0  0  0  0  0
   -1.8215   -1.8258    0.5537 H   0  0  0  0  0  0  0  0  0  0  0  0
    2.9705   -4.7692    0.9620 H   0  0  0  0  0  0  0  0  0  0  0  0
    4.7267   -1.2847    2.7615 H   0  0  0  0  0  0  0  0  0  0  0  0
    4.1797   -3.7031    2.8475 H   0  0  0  0  0  0  0  0  0  0  0  0
   -3.6813    0.5133   -1.6646 H   0  0  0  0  0  0  0  0  0  0  0  0
   -6.2648   -1.8689    1.8254 H   0  0  0  0  0  0  0  0  0  0  0  0
   -6.0473    0.8902   -1.4610 H   0  0  0  0  0  0  0  0  0  0  0  0
   -7.3753   -0.2834    0.2735 H   0  0  0  0  0  0  0  0  0  0  0  0
    0.5872    6.8191    1.4452 H   0  0  0  0  0  0  0  0  0  0  0  0
    1.4157    6.1496    0.0438 H   0  0  0  0  0  0  0  0  0  0  0  0
   -0.3762    5.9317    0.2692 H   0  0  0  0  0  0  0  0  0  0  0  0
  1  3  2  0  0  0  0
  1  4  2  0  0  0  0
  1  7  1  0  0  0  0
  1 11  1  0  0  0  0
  2 24  1  0  0  0  0
  5 19  1  0  0  0  0
  5 29  1  0  0  0  0
  6 12  2  0  0  0  0
  7  9  1  0  0  0  0
  7 10  1  0  0  0  0
  8 12  1  0  0  0  0
  8 22  1  0  0  0  0
  8 38  1  0  0  0  0
  9 12  1  0  0  0  0
  9 30  1  0  0  0  0
  9 31  1  0  0  0  0
 10 13  2  0  0  0  0
 10 14  1  0  0  0  0
 11 15  2  0  0  0  0
 11 16  1  0  0  0  0
 13 17  1  0  0  0  0
 13 32  1  0  0  0  0
 14 18  2  0  0  0  0
 14 33  1  0  0  0  0
 15 20  1  0  0  0  0
 15 34  1  0  0  0  0
 16 21  2  0  0  0  0
 16 35  1  0  0  0  0
 17 19  2  0  0  0  0
 17 36  1  0  0  0  0
 18 19  1  0  0  0  0
 18 37  1  0  0  0  0
 20 23  2  0  0  0  0
 20 39  1  0  0  0  0
 21 23  1  0  0  0  0
 21 40  1  0  0  0  0
 22 24  1  0  0  0  0
 22 25  2  0  0  0  0
 23 41  1  0  0  0  0
 24 26  2  0  0  0  0
 25 27  1  0  0  0  0
 25 42  1  0  0  0  0
 26 28  1  0  0  0  0
 26 43  1  0  0  0  0
 27 28  2  0  0  0  0
 27 44  1  0  0  0  0
 28 45  1  0  0  0  0
 29 46  1  0  0  0  0
 29 47  1  0  0  0  0
 29 48  1  0  0  0  0
M  END
> <PUBCHEM_COMPOUND_CID>
1339314

> <PUBCHEM_CONFORMER_RMSD>
1

> <PUBCHEM_CONFORMER_DIVERSEORDER>
1
6
62
65
67
63
48
17
43
23
37
28
19
64
52
7
34
25
44
53
22
16
60
70
69
36
38
41
46
2
47
59
33
21
31
8
15
9
14
24
39
32
5
29
55
26
13
12
27
30
54
3
45
68
4
51
50
58
40
10
11
35
18
20
49
66
57
56
42
61

> <PUBCHEM_MMFF94_PARTIAL_CHARGES>
43
1 1.45
10 0.2
11 -0.01
12 0.57
13 -0.15
14 -0.15
15 -0.15
16 -0.15
17 -0.15
18 -0.15
19 0.08
2 -0.19
20 -0.15
21 -0.15
22 0.12
23 -0.15
24 0.19
25 -0.15
26 -0.15
27 -0.15
28 -0.15
29 0.28
3 -0.65
32 0.15
33 0.15
34 0.15
35 0.15
36 0.15
37 0.15
38 0.37
39 0.15
4 -0.65
40 0.15
41 0.15
42 0.15
43 0.15
44 0.15
45 0.15
5 -0.36
6 -0.57
7 -0.69
8 -0.55
9 0.42

> <PUBCHEM_EFFECTIVE_ROTOR_COUNT>
8

> <PUBCHEM_PHARMACOPHORE_FEATURES>
8
1 3 acceptor
1 4 acceptor
1 5 acceptor
1 6 acceptor
1 8 donor
6 10 13 14 17 18 19 rings
6 11 15 16 20 21 23 rings
6 22 24 25 26 27 28 rings

> <PUBCHEM_HEAVY_ATOM_COUNT>
29

> <PUBCHEM_ATOM_DEF_STEREO_COUNT>
0

> <PUBCHEM_ATOM_UDEF_STEREO_COUNT>
0

> <PUBCHEM_BOND_DEF_STEREO_COUNT>
0

> <PUBCHEM_BOND_UDEF_STEREO_COUNT>
0

> <PUBCHEM_ISOTOPIC_ATOM_COUNT>
0

> <PUBCHEM_COMPONENT_COUNT>
1

> <PUBCHEM_CACTVS_TAUTO_COUNT>
2

> <PUBCHEM_CONFORMER_ID>
00146FB200000001

> <PUBCHEM_MMFF94_ENERGY>
91.9888

> <PUBCHEM_FEATURE_SELFOVERLAP>
40.617

> <PUBCHEM_SHAPE_FINGERPRINT>
10074138 170 17618483407778914072
10258939 38 16226314968323228828
11456790 92 18262245400996292113
11991303 11 9726762047143627544
12160290 23 17555456120057052540
12293681 160 18048911707876015996
12522641 24 18195548072104296643
12788726 201 18265902354493733558
13134695 92 18341040865700702349
133893 2 17911488172539581604
13583140 156 18266185100949880647
14251757 17 15213887967758579458
14466204 15 18268990887204097289
14866123 147 17183339522113638171
15420108 30 17486471961887664700
17868525 174 18410291411286027289
20775438 99 12037457209359971378
21033648 29 16916502537203458467
23559900 14 17968661639835322895
24893989 43 15027070991288169640
3004659 81 17530971232957121270
3380486 145 17913737610363944822
345986 75 18044366141416307698
376196 1 16982093104220764072
4058900 60 17834125512466365849
6086070 43 18411694367006474621
70251023 43 18198644150486870438
79837 15 17041190814804862056
8509985 295 18409166589141727887
9777508 108 17333934149164376600
9841814 1 18341617031120806542

> <PUBCHEM_SHAPE_MULTIPOLES>
559.94
10.67
5.93
2.03
17.62
10.64
0.33
-11.56
-2.69
-4.91
-3.6
-1.53
-0.42
0.1

> <PUBCHEM_SHAPE_SELFOVERLAP>
1192.04

> <PUBCHEM_SHAPE_VOLUME>
314.3

> <PUBCHEM_COORDINATE_TYPE>
2
5
10

$$$$
