13463446
  -OEChem-11232109453D

 24 23  0     1  0  0  0  0  0999 V2000
    3.4510    0.2894    0.5745 O   0  0  0  0  0  0  0  0  0  0  0  0
   -1.3902   -0.5789   -0.3531 C   0  0  2  0  0  0  0  0  0  0  0  0
    0.0009   -0.1602   -0.8728 C   0  0  0  0  0  0  0  0  0  0  0  0
   -2.0433    0.4402    0.5994 C   0  0  0  0  0  0  0  0  0  0  0  0
    1.1053   -0.1133    0.1845 C   0  0  0  0  0  0  0  0  0  0  0  0
   -1.3474   -1.9576    0.3144 C   0  0  0  0  0  0  0  0  0  0  0  0
   -2.2250    1.8210   -0.0141 C   0  0  0  0  0  0  0  0  0  0  0  0
    2.4488    0.2594   -0.4328 C   0  0  0  0  0  0  0  0  0  0  0  0
   -2.0408   -0.6680   -1.2341 H   0  0  0  0  0  0  0  0  0  0  0  0
   -0.0652    0.8089   -1.3805 H   0  0  0  0  0  0  0  0  0  0  0  0
    0.2993   -0.8779   -1.6491 H   0  0  0  0  0  0  0  0  0  0  0  0
   -1.4592    0.5313    1.5226 H   0  0  0  0  0  0  0  0  0  0  0  0
   -3.0318    0.0654    0.8942 H   0  0  0  0  0  0  0  0  0  0  0  0
    1.2127   -1.0815    0.6862 H   0  0  0  0  0  0  0  0  0  0  0  0
    0.8579    0.6104    0.9696 H   0  0  0  0  0  0  0  0  0  0  0  0
   -2.3635   -2.3184    0.5088 H   0  0  0  0  0  0  0  0  0  0  0  0
   -0.8544   -2.6912   -0.3320 H   0  0  0  0  0  0  0  0  0  0  0  0
   -0.8207   -1.9320    1.2736 H   0  0  0  0  0  0  0  0  0  0  0  0
   -2.7584    1.7621   -0.9679 H   0  0  0  0  0  0  0  0  0  0  0  0
   -2.8080    2.4561    0.6608 H   0  0  0  0  0  0  0  0  0  0  0  0
   -1.2642    2.3167   -0.1807 H   0  0  0  0  0  0  0  0  0  0  0  0
    2.3988    1.2486   -0.8993 H   0  0  0  0  0  0  0  0  0  0  0  0
    2.7438   -0.4737   -1.1905 H   0  0  0  0  0  0  0  0  0  0  0  0
    4.2862    0.5304    0.1387 H   0  0  0  0  0  0  0  0  0  0  0  0
  1  8  1  0  0  0  0
  1 24  1  0  0  0  0
  2  3  1  0  0  0  0
  2  4  1  0  0  0  0
  2  6  1  0  0  0  0
  2  9  1  0  0  0  0
  3  5  1  0  0  0  0
  3 10  1  0  0  0  0
  3 11  1  0  0  0  0
  4  7  1  0  0  0  0
  4 12  1  0  0  0  0
  4 13  1  0  0  0  0
  5  8  1  0  0  0  0
  5 14  1  0  0  0  0
  5 15  1  0  0  0  0
  6 16  1  0  0  0  0
  6 17  1  0  0  0  0
  6 18  1  0  0  0  0
  7 19  1  0  0  0  0
  7 20  1  0  0  0  0
  7 21  1  0  0  0  0
  8 22  1  0  0  0  0
  8 23  1  0  0  0  0
M  END
> <PUBCHEM_COMPOUND_CID>
13463446

> <PUBCHEM_CONFORMER_RMSD>
0.6

> <PUBCHEM_CONFORMER_DIVERSEORDER>
7
28
11
17
21
8
25
4
26
14
29
27
9
15
23
2
24
13
12
1
20
10
22
6
19
16
3
18
5

> <PUBCHEM_MMFF94_PARTIAL_CHARGES>
3
1 -0.68
24 0.4
8 0.28

> <PUBCHEM_EFFECTIVE_ROTOR_COUNT>
4

> <PUBCHEM_PHARMACOPHORE_FEATURES>
5
1 1 acceptor
1 1 donor
1 6 hydrophobe
1 7 hydrophobe
4 2 3 4 5 hydrophobe

> <PUBCHEM_HEAVY_ATOM_COUNT>
8

> <PUBCHEM_ATOM_DEF_STEREO_COUNT>
1

> <PUBCHEM_ATOM_UDEF_STEREO_COUNT>
0

> <PUBCHEM_BOND_DEF_STEREO_COUNT>
0

> <PUBCHEM_BOND_UDEF_STEREO_COUNT>
0

> <PUBCHEM_ISOTOPIC_ATOM_COUNT>
0

> <PUBCHEM_COMPONENT_COUNT>
1

> <PUBCHEM_CACTVS_TAUTO_COUNT>
1

> <PUBCHEM_CONFORMER_ID>
00CD6F9600000007

> <PUBCHEM_MMFF94_ENERGY>
4.6834

> <PUBCHEM_FEATURE_SELFOVERLAP>
25.539

> <PUBCHEM_SHAPE_FINGERPRINT>
12932741 1 17774737406283571102
12932764 1 17417815097253327974
14390081 3 18059856138521703680
20645464 45 18271812289321787454
20653085 51 15984278300515533537
21040471 1 18265628601657036223
23211744 41 18128546959531109229
23552449 1 18341897458325885461
3248919 1 18336542802592105318
54338 74 18262230144454590197

> <PUBCHEM_SHAPE_MULTIPOLES>
158.77
4.3
1.62
0.84
3.87
0.25
0.06
-1.42
-0.78
-1.56
-0.13
0.05
0.01
0.04

> <PUBCHEM_SHAPE_SELFOVERLAP>
277.523

> <PUBCHEM_SHAPE_VOLUME>
105.6

> <PUBCHEM_COORDINATE_TYPE>
2
5
10

$$$$
