136335
  -OEChem-11232109273D

 14 14  0     0  0  0  0  0  0999 V2000
    0.9565   -1.4400    0.3660 S   0  0  0  0  0  0  0  0  0  0  0  0
   -0.9571   -1.4397   -0.3660 S   0  0  0  0  0  0  0  0  0  0  0  0
    0.7400    1.3114    0.2027 C   0  0  0  0  0  0  0  0  0  0  0  0
   -0.7394    1.3118   -0.2026 C   0  0  0  0  0  0  0  0  0  0  0  0
    1.5540    0.1279   -0.3219 C   0  0  0  0  0  0  0  0  0  0  0  0
   -1.5541    0.1286    0.3218 C   0  0  0  0  0  0  0  0  0  0  0  0
    1.1960    2.2333   -0.1798 H   0  0  0  0  0  0  0  0  0  0  0  0
    0.8186    1.3649    1.2963 H   0  0  0  0  0  0  0  0  0  0  0  0
   -1.1950    2.2338    0.1799 H   0  0  0  0  0  0  0  0  0  0  0  0
   -0.8179    1.3655   -1.2962 H   0  0  0  0  0  0  0  0  0  0  0  0
    1.5322    0.0861   -1.4162 H   0  0  0  0  0  0  0  0  0  0  0  0
    2.6006    0.2474   -0.0230 H   0  0  0  0  0  0  0  0  0  0  0  0
   -1.5324    0.0868    1.4161 H   0  0  0  0  0  0  0  0  0  0  0  0
   -2.6006    0.2485    0.0228 H   0  0  0  0  0  0  0  0  0  0  0  0
  1  2  1  0  0  0  0
  1  5  1  0  0  0  0
  2  6  1  0  0  0  0
  3  4  1  0  0  0  0
  3  5  1  0  0  0  0
  3  7  1  0  0  0  0
  3  8  1  0  0  0  0
  4  6  1  0  0  0  0
  4  9  1  0  0  0  0
  4 10  1  0  0  0  0
  5 11  1  0  0  0  0
  5 12  1  0  0  0  0
  6 13  1  0  0  0  0
  6 14  1  0  0  0  0
M  END
> <PUBCHEM_COMPOUND_CID>
136335

> <PUBCHEM_CONFORMER_RMSD>
0.4

> <PUBCHEM_CONFORMER_DIVERSEORDER>
1
3
4
2

> <PUBCHEM_MMFF94_PARTIAL_CHARGES>
4
1 -0.23
2 -0.23
5 0.23
6 0.23

> <PUBCHEM_EFFECTIVE_ROTOR_COUNT>
1.2

> <PUBCHEM_PHARMACOPHORE_FEATURES>
1
6 1 2 3 4 5 6 rings

> <PUBCHEM_HEAVY_ATOM_COUNT>
6

> <PUBCHEM_ATOM_DEF_STEREO_COUNT>
0

> <PUBCHEM_ATOM_UDEF_STEREO_COUNT>
0

> <PUBCHEM_BOND_DEF_STEREO_COUNT>
0

> <PUBCHEM_BOND_UDEF_STEREO_COUNT>
0

> <PUBCHEM_ISOTOPIC_ATOM_COUNT>
0

> <PUBCHEM_COMPONENT_COUNT>
1

> <PUBCHEM_CACTVS_TAUTO_COUNT>
1

> <PUBCHEM_CONFORMER_ID>
0002148F00000001

> <PUBCHEM_MMFF94_ENERGY>
-4.722

> <PUBCHEM_FEATURE_SELFOVERLAP>
5.074

> <PUBCHEM_SHAPE_FINGERPRINT>
16714656 1 17763748685122859518
18185500 45 18410569621475487767
20096714 4 18411705408418047363
21040471 1 18339360751629844640

> <PUBCHEM_SHAPE_MULTIPOLES>
131.18
1.95
1.92
0.74
0.18
0
0
0
0
0.1
0
0.08
0
0.14

> <PUBCHEM_SHAPE_SELFOVERLAP>
220.166

> <PUBCHEM_SHAPE_VOLUME>
87.5

> <PUBCHEM_COORDINATE_TYPE>
2
5
10

$$$$
