137059
  -OEChem-11232109473D

 29 30  0     0  0  0  0  0  0999 V2000
   -0.3385   -0.5092   -0.4305 O   0  0  0  0  0  0  0  0  0  0  0  0
    5.1089   -0.0777    0.2905 O   0  0  0  0  0  0  0  0  0  0  0  0
   -0.6094    1.1226    1.2125 O   0  0  0  0  0  0  0  0  0  0  0  0
    1.0428   -0.4010   -0.2484 C   0  0  0  0  0  0  0  0  0  0  0  0
   -2.5131    0.1630    0.1444 C   0  0  0  0  0  0  0  0  0  0  0  0
    3.7639   -0.1843    0.1121 C   0  0  0  0  0  0  0  0  0  0  0  0
    1.6529   -1.2123    0.6817 C   0  0  0  0  0  0  0  0  0  0  0  0
    1.7391    0.5147   -1.0056 C   0  0  0  0  0  0  0  0  0  0  0  0
    3.0314   -1.1025    0.8645 C   0  0  0  0  0  0  0  0  0  0  0  0
    3.1176    0.6244   -0.8229 C   0  0  0  0  0  0  0  0  0  0  0  0
   -1.0895    0.3306    0.3892 C   0  0  0  0  0  0  0  0  0  0  0  0
   -3.3829    1.2387    0.3235 C   0  0  0  0  0  0  0  0  0  0  0  0
   -3.0089   -1.0733   -0.2700 C   0  0  0  0  0  0  0  0  0  0  0  0
   -4.7485    1.0781    0.0885 C   0  0  0  0  0  0  0  0  0  0  0  0
   -4.3744   -1.2337   -0.5052 C   0  0  0  0  0  0  0  0  0  0  0  0
   -5.2441   -0.1579   -0.3259 C   0  0  0  0  0  0  0  0  0  0  0  0
    5.8528    0.8799   -0.4984 C   0  0  0  0  0  0  0  0  0  0  0  0
    1.0827   -1.9270    1.2668 H   0  0  0  0  0  0  0  0  0  0  0  0
    1.2351    1.1432   -1.7331 H   0  0  0  0  0  0  0  0  0  0  0  0
    3.5291   -1.7352    1.5944 H   0  0  0  0  0  0  0  0  0  0  0  0
    3.6348    1.3553   -1.4355 H   0  0  0  0  0  0  0  0  0  0  0  0
   -3.0129    2.2095    0.6430 H   0  0  0  0  0  0  0  0  0  0  0  0
   -2.3579   -1.9329   -0.4054 H   0  0  0  0  0  0  0  0  0  0  0  0
   -5.4258    1.9158    0.2274 H   0  0  0  0  0  0  0  0  0  0  0  0
   -4.7613   -2.1969   -0.8250 H   0  0  0  0  0  0  0  0  0  0  0  0
   -6.3074   -0.2831   -0.5084 H   0  0  0  0  0  0  0  0  0  0  0  0
    5.5194    1.9004   -0.2857 H   0  0  0  0  0  0  0  0  0  0  0  0
    5.7889    0.6380   -1.5638 H   0  0  0  0  0  0  0  0  0  0  0  0
    6.9018    0.7996   -0.1980 H   0  0  0  0  0  0  0  0  0  0  0  0
  1  4  1  0  0  0  0
  1 11  1  0  0  0  0
  2  6  1  0  0  0  0
  2 17  1  0  0  0  0
  3 11  2  0  0  0  0
  4  7  2  0  0  0  0
  4  8  1  0  0  0  0
  5 11  1  0  0  0  0
  5 12  2  0  0  0  0
  5 13  1  0  0  0  0
  6  9  2  0  0  0  0
  6 10  1  0  0  0  0
  7  9  1  0  0  0  0
  7 18  1  0  0  0  0
  8 10  2  0  0  0  0
  8 19  1  0  0  0  0
  9 20  1  0  0  0  0
 10 21  1  0  0  0  0
 12 14  1  0  0  0  0
 12 22  1  0  0  0  0
 13 15  2  0  0  0  0
 13 23  1  0  0  0  0
 14 16  2  0  0  0  0
 14 24  1  0  0  0  0
 15 16  1  0  0  0  0
 15 25  1  0  0  0  0
 16 26  1  0  0  0  0
 17 27  1  0  0  0  0
 17 28  1  0  0  0  0
 17 29  1  0  0  0  0
M  END
> <PUBCHEM_COMPOUND_CID>
137059

> <PUBCHEM_CONFORMER_RMSD>
0.6

> <PUBCHEM_CONFORMER_DIVERSEORDER>
1
38
22
39
36
16
33
24
5
23
10
8
30
29
28
31
3
18
15
35
6
17
32
2
27
13
26
7
9
37
4
14
21
12
25
11
19
34
20

> <PUBCHEM_MMFF94_PARTIAL_CHARGES>
26
1 -0.23
10 -0.15
11 0.63
12 -0.15
13 -0.15
14 -0.15
15 -0.15
16 -0.15
17 0.28
18 0.15
19 0.15
2 -0.36
20 0.15
21 0.15
22 0.15
23 0.15
24 0.15
25 0.15
26 0.15
3 -0.57
4 0.08
5 0.09
6 0.08
7 -0.15
8 -0.15
9 -0.15

> <PUBCHEM_EFFECTIVE_ROTOR_COUNT>
4

> <PUBCHEM_PHARMACOPHORE_FEATURES>
4
1 2 acceptor
1 3 acceptor
6 4 6 7 8 9 10 rings
6 5 12 13 14 15 16 rings

> <PUBCHEM_HEAVY_ATOM_COUNT>
17

> <PUBCHEM_ATOM_DEF_STEREO_COUNT>
0

> <PUBCHEM_ATOM_UDEF_STEREO_COUNT>
0

> <PUBCHEM_BOND_DEF_STEREO_COUNT>
0

> <PUBCHEM_BOND_UDEF_STEREO_COUNT>
0

> <PUBCHEM_ISOTOPIC_ATOM_COUNT>
0

> <PUBCHEM_COMPONENT_COUNT>
1

> <PUBCHEM_CACTVS_TAUTO_COUNT>
1

> <PUBCHEM_CONFORMER_ID>
0002176300000001

> <PUBCHEM_MMFF94_ENERGY>
64.4412

> <PUBCHEM_FEATURE_SELFOVERLAP>
20.297

> <PUBCHEM_SHAPE_FINGERPRINT>
10366900 7 15841549660969017507
10680689 15 15626220209011531025
10912923 1 18335698321368436731
11401426 45 18260829306136676028
12107183 9 17614838513694616057
12236239 1 18408884036001287486
13167823 11 18335417950399086187
13533116 47 18041553651550799466
13631057 29 18116434937061597171
13760787 19 18410853252784334835
14123238 8 18113336405566082173
1420 363 16415483761384581476
14251718 22 18343582962174458790
14386348 63 16630528440326125319
14528608 73 18408605894235709772
15048467 5 18334575720460915189
15375358 24 17131832049806795639
17834072 33 18410292527729117174
17834076 25 18260266351946283658
18186145 218 16081090372587658889
18681886 176 18271523191242148546
19489759 90 18413107255900171833
200 152 18260546727580119623
20279233 1 16845855685224056295
20645477 70 16878216464008029850
21033648 29 15338827621849344691
21054139 6 18262794184982201110
21065198 48 18335980870108063683
21267235 1 18343307002605870567
2297311 6 17489875946686614073
23035841 295 18060422404121383702
23402539 116 18131909368957040900
23402655 69 18261109647310527445
23557571 272 17417818300713797209
23559900 14 17845377652313180262
26918003 58 16732707146743312441
296302 2 18259705583809920499
300161 21 18333444331363990799
34797466 226 17632305622245074836
3545911 37 18408606954654729847
4214541 1 18410009919023621037
42788 4 18410855464718521790
474 4 17676775378351260956
5104073 3 18333731290750214713
542803 24 18410856555365921340
573450 72 18338791230919753707
67856867 119 18262800803574121428
69090 78 16950002538977239507
7495541 125 16916781933415763978
9971528 1 17749392529645305710

> <PUBCHEM_SHAPE_MULTIPOLES>
332.24
12.39
1.28
0.92
2.53
0.08
-0.04
-1.59
1.23
-0.39
-0.1
0.19
-0.05
-1.04

> <PUBCHEM_SHAPE_SELFOVERLAP>
714.137

> <PUBCHEM_SHAPE_VOLUME>
181.2

> <PUBCHEM_COORDINATE_TYPE>
2
5
10

$$$$
