137980
  -OEChem-11232108573D

 11 11  0     0  0  0  0  0  0999 V2000
   -0.0375    1.4323   -0.0002 S   0  0  0  0  0  0  0  0  0  0  0  0
   -1.4320   -0.7443    0.0002 N   0  0  0  0  0  0  0  0  0  0  0  0
    0.8059   -0.0609   -0.0006 C   0  0  0  0  0  0  0  0  0  0  0  0
    2.2813   -0.0916    0.0005 C   0  0  0  0  0  0  0  0  0  0  0  0
   -0.0979   -1.1026   -0.0002 C   0  0  0  0  0  0  0  0  0  0  0  0
   -1.5196    0.5672    0.0003 C   0  0  0  0  0  0  0  0  0  0  0  0
    2.6531   -1.1218   -0.0008 H   0  0  0  0  0  0  0  0  0  0  0  0
    2.6846    0.4075   -0.8868 H   0  0  0  0  0  0  0  0  0  0  0  0
    2.6832    0.4048    0.8900 H   0  0  0  0  0  0  0  0  0  0  0  0
    0.1624   -2.1528    0.0001 H   0  0  0  0  0  0  0  0  0  0  0  0
   -2.4717    1.0801    0.0007 H   0  0  0  0  0  0  0  0  0  0  0  0
  1  3  1  0  0  0  0
  1  6  1  0  0  0  0
  2  5  1  0  0  0  0
  2  6  2  0  0  0  0
  3  4  1  0  0  0  0
  3  5  2  0  0  0  0
  4  7  1  0  0  0  0
  4  8  1  0  0  0  0
  4  9  1  0  0  0  0
  5 10  1  0  0  0  0
  6 11  1  0  0  0  0
M  END
> <PUBCHEM_COMPOUND_CID>
137980

> <PUBCHEM_CONFORMER_RMSD>
0.4

> <PUBCHEM_CONFORMER_DIVERSEORDER>
1

> <PUBCHEM_MMFF94_PARTIAL_CHARGES>
8
1 -0.08
10 0.15
11 0.15
2 -0.57
3 -0.14
4 0.18
5 0.08
6 0.23

> <PUBCHEM_EFFECTIVE_ROTOR_COUNT>
0

> <PUBCHEM_PHARMACOPHORE_FEATURES>
2
1 2 acceptor
5 1 2 3 5 6 rings

> <PUBCHEM_HEAVY_ATOM_COUNT>
6

> <PUBCHEM_ATOM_DEF_STEREO_COUNT>
0

> <PUBCHEM_ATOM_UDEF_STEREO_COUNT>
0

> <PUBCHEM_BOND_DEF_STEREO_COUNT>
0

> <PUBCHEM_BOND_UDEF_STEREO_COUNT>
0

> <PUBCHEM_ISOTOPIC_ATOM_COUNT>
0

> <PUBCHEM_COMPONENT_COUNT>
1

> <PUBCHEM_CACTVS_TAUTO_COUNT>
1

> <PUBCHEM_CONFORMER_ID>
00021AFC00000001

> <PUBCHEM_MMFF94_ENERGY>
3.0845

> <PUBCHEM_FEATURE_SELFOVERLAP>
10.148

> <PUBCHEM_SHAPE_FINGERPRINT>
139733 1 9295300438345057312
16714656 1 18411142411399216988
20096714 4 18337955592986228960
21015797 1 9293841386499355625
21040471 1 18122344575388713856
23552423 10 18188497874043673958
29004967 10 18336272326636249546
5943 1 12079517716693956465

> <PUBCHEM_SHAPE_MULTIPOLES>
122.35
2.25
1.35
0.62
0.91
0.23
0
-0.07
0
-0.26
0
0.02
0.03
0

> <PUBCHEM_SHAPE_SELFOVERLAP>
232.575

> <PUBCHEM_SHAPE_VOLUME>
77.7

> <PUBCHEM_COORDINATE_TYPE>
2
5
10

$$$$
