1381163
  -OEChem-11232109123D

 26 26  0     0  0  0  0  0  0999 V2000
   -3.2256   -2.4408    0.0757 N   0  0  0  0  0  0  0  0  0  0  0  0
   -0.0651    0.4241   -0.7174 C   0  0  0  0  0  0  0  0  0  0  0  0
   -0.9912    0.5613    0.4997 C   0  0  0  0  0  0  0  0  0  0  0  0
    1.3677    0.1293   -0.3489 C   0  0  0  0  0  0  0  0  0  0  0  0
   -2.4078    0.9824    0.1553 C   0  0  0  0  0  0  0  0  0  0  0  0
    2.2463    1.1812   -0.1389 C   0  0  0  0  0  0  0  0  0  0  0  0
    1.7816   -1.1882   -0.2261 C   0  0  0  0  0  0  0  0  0  0  0  0
   -2.6369    2.4688    0.0636 C   0  0  0  0  0  0  0  0  0  0  0  0
    3.5712    0.9088    0.2019 C   0  0  0  0  0  0  0  0  0  0  0  0
    3.1065   -1.4604    0.1149 C   0  0  0  0  0  0  0  0  0  0  0  0
   -3.4323    0.1303   -0.0366 C   0  0  0  0  0  0  0  0  0  0  0  0
    4.0012   -0.4119    0.3289 C   0  0  0  0  0  0  0  0  0  0  0  0
   -3.3155   -1.2848    0.0280 C   0  0  0  0  0  0  0  0  0  0  0  0
   -0.4397   -0.3657   -1.3823 H   0  0  0  0  0  0  0  0  0  0  0  0
   -0.0958    1.3431   -1.3178 H   0  0  0  0  0  0  0  0  0  0  0  0
   -0.9993   -0.3861    1.0543 H   0  0  0  0  0  0  0  0  0  0  0  0
   -0.5718    1.2902    1.2065 H   0  0  0  0  0  0  0  0  0  0  0  0
    1.9202    2.2130   -0.2332 H   0  0  0  0  0  0  0  0  0  0  0  0
    1.0915   -2.0112   -0.3885 H   0  0  0  0  0  0  0  0  0  0  0  0
   -2.4025    2.9481    1.0197 H   0  0  0  0  0  0  0  0  0  0  0  0
   -1.9976    2.9053   -0.7103 H   0  0  0  0  0  0  0  0  0  0  0  0
   -3.6743    2.7163   -0.1858 H   0  0  0  0  0  0  0  0  0  0  0  0
    4.2677    1.7251    0.3692 H   0  0  0  0  0  0  0  0  0  0  0  0
    3.4414   -2.4889    0.2144 H   0  0  0  0  0  0  0  0  0  0  0  0
   -4.4196    0.5205   -0.2670 H   0  0  0  0  0  0  0  0  0  0  0  0
    5.0327   -0.6240    0.5946 H   0  0  0  0  0  0  0  0  0  0  0  0
  1 13  3  0  0  0  0
  2  3  1  0  0  0  0
  2  4  1  0  0  0  0
  2 14  1  0  0  0  0
  2 15  1  0  0  0  0
  3  5  1  0  0  0  0
  3 16  1  0  0  0  0
  3 17  1  0  0  0  0
  4  6  2  0  0  0  0
  4  7  1  0  0  0  0
  5  8  1  0  0  0  0
  5 11  2  0  0  0  0
  6  9  1  0  0  0  0
  6 18  1  0  0  0  0
  7 10  2  0  0  0  0
  7 19  1  0  0  0  0
  8 20  1  0  0  0  0
  8 21  1  0  0  0  0
  8 22  1  0  0  0  0
  9 12  2  0  0  0  0
  9 23  1  0  0  0  0
 10 12  1  0  0  0  0
 10 24  1  0  0  0  0
 11 13  1  0  0  0  0
 11 25  1  0  0  0  0
 12 26  1  0  0  0  0
M  END
> <PUBCHEM_COMPOUND_CID>
1381163

> <PUBCHEM_CONFORMER_RMSD>
0.6

> <PUBCHEM_CONFORMER_DIVERSEORDER>
1
2
15
16
5
18
9
8
13
7
6
4
14
12
10
17
3
11

> <PUBCHEM_MMFF94_PARTIAL_CHARGES>
19
1 -0.56
10 -0.15
11 -0.09
12 -0.15
13 0.49
18 0.15
19 0.15
2 0.14
23 0.15
24 0.15
25 0.15
26 0.15
3 0.14
4 -0.14
5 -0.28
6 -0.15
7 -0.15
8 0.14
9 -0.15

> <PUBCHEM_EFFECTIVE_ROTOR_COUNT>
3

> <PUBCHEM_PHARMACOPHORE_FEATURES>
3
1 1 acceptor
1 8 hydrophobe
6 4 6 7 9 10 12 rings

> <PUBCHEM_HEAVY_ATOM_COUNT>
13

> <PUBCHEM_ATOM_DEF_STEREO_COUNT>
0

> <PUBCHEM_ATOM_UDEF_STEREO_COUNT>
0

> <PUBCHEM_BOND_DEF_STEREO_COUNT>
1

> <PUBCHEM_BOND_UDEF_STEREO_COUNT>
0

> <PUBCHEM_ISOTOPIC_ATOM_COUNT>
0

> <PUBCHEM_COMPONENT_COUNT>
1

> <PUBCHEM_CACTVS_TAUTO_COUNT>
1

> <PUBCHEM_CONFORMER_ID>
0015132B00000001

> <PUBCHEM_MMFF94_ENERGY>
23.2062

> <PUBCHEM_FEATURE_SELFOVERLAP>
15.223

> <PUBCHEM_SHAPE_FINGERPRINT>
10608611 8 18412542085348821472
10616163 171 18412266138010955543
12251169 10 18410577240837122245
12500047 106 18265608784636020125
12932764 1 18337408044801582709
13675066 3 17917420996224281834
13693222 15 18341618126532502905
14144814 61 18411982429624441856
14289901 80 18408606971929707264
14325111 11 18411419488319055348
14965852 173 18410293571168968573
15442244 35 18265331712090361266
17834072 33 18261680350386942804
17834074 16 18411138017479095430
19050596 39 18412545418105948897
19107657 46 18411138017468552543
200 152 18342446063357472909
20281475 54 18187928327046671446
20645477 56 18265054643961502085
221490 88 18410582807494636930
22169311 21 18409158896580558837
22485316 2 18187361000268172874
22959321 105 18409446990128395821
23402539 116 18187638137080040244
23557571 272 18130796620140461685
23559900 14 18412538808388748184
5104073 3 18413386510547537944
581208 293 18113617898160459944
69090 78 18336827468872103781
9709674 26 18343023242305917959

> <PUBCHEM_SHAPE_MULTIPOLES>
262.55
7.89
2.15
0.7
0.68
0.27
0.02
1.37
-0.74
-1.93
-0.07
0.06
-0.04
-0.04

> <PUBCHEM_SHAPE_SELFOVERLAP>
531.427

> <PUBCHEM_SHAPE_VOLUME>
151.2

> <PUBCHEM_COORDINATE_TYPE>
2
5
10

$$$$
