138166
  -OEChem-11232108423D

 23 23  0     0  0  0  0  0  0999 V2000
   -2.8683    0.0000    0.2876 O   0  0  0  0  0  0  0  0  0  0  0  0
    1.2720    0.0000    0.0466 C   0  0  0  0  0  0  0  0  0  0  0  0
    0.4434    1.2602    0.3868 C   0  0  0  0  0  0  0  0  0  0  0  0
    0.4435   -1.2602    0.3866 C   0  0  0  0  0  0  0  0  0  0  0  0
   -0.9284    1.2868   -0.2780 C   0  0  0  0  0  0  0  0  0  0  0  0
   -0.9285   -1.2867   -0.2779 C   0  0  0  0  0  0  0  0  0  0  0  0
    1.6889    0.0000   -1.4357 C   0  0  0  0  0  0  0  0  0  0  0  0
    2.5537    0.0000    0.9014 C   0  0  0  0  0  0  0  0  0  0  0  0
   -1.6763    0.0000   -0.0174 C   0  0  0  0  0  0  0  0  0  0  0  0
    0.9961    2.1659    0.1075 H   0  0  0  0  0  0  0  0  0  0  0  0
    0.2982    1.3092    1.4748 H   0  0  0  0  0  0  0  0  0  0  0  0
    0.2984   -1.3095    1.4746 H   0  0  0  0  0  0  0  0  0  0  0  0
    0.9961   -2.1659    0.1071 H   0  0  0  0  0  0  0  0  0  0  0  0
   -0.8480    1.4260   -1.3606 H   0  0  0  0  0  0  0  0  0  0  0  0
   -1.5124    2.1225    0.1228 H   0  0  0  0  0  0  0  0  0  0  0  0
   -1.5124   -2.1225    0.1230 H   0  0  0  0  0  0  0  0  0  0  0  0
   -0.8482   -1.4261   -1.3604 H   0  0  0  0  0  0  0  0  0  0  0  0
    2.2915    0.8843   -1.6725 H   0  0  0  0  0  0  0  0  0  0  0  0
    2.2916   -0.8842   -1.6725 H   0  0  0  0  0  0  0  0  0  0  0  0
    0.8305    0.0000   -2.1135 H   0  0  0  0  0  0  0  0  0  0  0  0
    2.3186   -0.0001    1.9716 H   0  0  0  0  0  0  0  0  0  0  0  0
    3.1660   -0.8854    0.6961 H   0  0  0  0  0  0  0  0  0  0  0  0
    3.1659    0.8853    0.6961 H   0  0  0  0  0  0  0  0  0  0  0  0
  1  9  2  0  0  0  0
  2  3  1  0  0  0  0
  2  4  1  0  0  0  0
  2  7  1  0  0  0  0
  2  8  1  0  0  0  0
  3  5  1  0  0  0  0
  3 10  1  0  0  0  0
  3 11  1  0  0  0  0
  4  6  1  0  0  0  0
  4 12  1  0  0  0  0
  4 13  1  0  0  0  0
  5  9  1  0  0  0  0
  5 14  1  0  0  0  0
  5 15  1  0  0  0  0
  6  9  1  0  0  0  0
  6 16  1  0  0  0  0
  6 17  1  0  0  0  0
  7 18  1  0  0  0  0
  7 19  1  0  0  0  0
  7 20  1  0  0  0  0
  8 21  1  0  0  0  0
  8 22  1  0  0  0  0
  8 23  1  0  0  0  0
M  END
> <PUBCHEM_COMPOUND_CID>
138166

> <PUBCHEM_CONFORMER_RMSD>
0.4

> <PUBCHEM_CONFORMER_DIVERSEORDER>
1
2
3

> <PUBCHEM_MMFF94_PARTIAL_CHARGES>
4
1 -0.57
5 0.06
6 0.06
9 0.45

> <PUBCHEM_EFFECTIVE_ROTOR_COUNT>
1

> <PUBCHEM_PHARMACOPHORE_FEATURES>
3
1 1 acceptor
3 2 7 8 hydrophobe
6 2 3 4 5 6 9 rings

> <PUBCHEM_HEAVY_ATOM_COUNT>
9

> <PUBCHEM_ATOM_DEF_STEREO_COUNT>
0

> <PUBCHEM_ATOM_UDEF_STEREO_COUNT>
0

> <PUBCHEM_BOND_DEF_STEREO_COUNT>
0

> <PUBCHEM_BOND_UDEF_STEREO_COUNT>
0

> <PUBCHEM_ISOTOPIC_ATOM_COUNT>
0

> <PUBCHEM_COMPONENT_COUNT>
1

> <PUBCHEM_CACTVS_TAUTO_COUNT>
2

> <PUBCHEM_CONFORMER_ID>
00021BB600000001

> <PUBCHEM_MMFF94_ENERGY>
15.8359

> <PUBCHEM_FEATURE_SELFOVERLAP>
15.223

> <PUBCHEM_SHAPE_FINGERPRINT>
10857977 72 18409445920923996003
12423570 1 10068342934924359036
15310529 11 16877946061314180237
16945 1 18410572889966439247
18185500 45 18334288786095273131
21040471 1 18410014299425980807
23235685 24 18060414733394085264
23552423 10 17970636181496946394
2748010 2 18122621648097578445
29004967 10 16774082877413708450
369184 2 18341034272957414794
5084963 1 17676204641368644800

> <PUBCHEM_SHAPE_MULTIPOLES>
179.35
3.1
1.35
0.99
0.54
0
0.27
0
-0.4
0.23
-0.04
-0.6
0
0

> <PUBCHEM_SHAPE_SELFOVERLAP>
352.071

> <PUBCHEM_SHAPE_VOLUME>
107.9

> <PUBCHEM_COORDINATE_TYPE>
2
5
10

$$$$
