13854255
  -OEChem-11232109273D

 40 42  0     1  0  0  0  0  0999 V2000
   -1.2428   -2.1434   -1.4440 O   0  0  0  0  0  0  0  0  0  0  0  0
    1.0064   -0.3043    0.6728 C   0  0  1  0  0  0  0  0  0  0  0  0
    2.3235   -0.2751   -0.0575 C   0  0  0  0  0  0  0  0  0  0  0  0
    1.8106    0.9724    0.6128 C   0  0  1  0  0  0  0  0  0  0  0  0
   -0.2887   -0.4054   -0.0871 C   0  0  2  0  0  0  0  0  0  0  0  0
   -1.3350    0.5661    0.5280 C   0  0  2  0  0  0  0  0  0  0  0  0
   -0.9586   -1.8096   -0.0757 C   0  0  1  0  0  0  0  0  0  0  0  0
    1.3384    2.1459   -0.1929 C   0  0  0  0  0  0  0  0  0  0  0  0
    3.5059   -0.9975    0.4933 C   0  0  0  0  0  0  0  0  0  0  0  0
    2.2651   -0.3134   -1.5481 C   0  0  0  0  0  0  0  0  0  0  0  0
   -2.6642   -0.1722    0.3306 C   0  0  0  0  0  0  0  0  0  0  0  0
   -2.2931   -1.6139    0.6548 C   0  0  0  0  0  0  0  0  0  0  0  0
    0.0463    2.7462    0.3740 C   0  0  0  0  0  0  0  0  0  0  0  0
   -1.2111    1.9821   -0.0108 C   0  0  0  0  0  0  0  0  0  0  0  0
   -0.1500   -2.9658    0.5036 C   0  0  0  0  0  0  0  0  0  0  0  0
   -2.1527    2.5881   -0.7537 C   0  0  0  0  0  0  0  0  0  0  0  0
    0.9539   -0.7569    1.6567 H   0  0  0  0  0  0  0  0  0  0  0  0
    2.2824    1.2896    1.5371 H   0  0  0  0  0  0  0  0  0  0  0  0
   -0.1837   -0.1106   -1.1332 H   0  0  0  0  0  0  0  0  0  0  0  0
   -1.1736    0.6301    1.6153 H   0  0  0  0  0  0  0  0  0  0  0  0
    1.2049    1.9709   -1.2606 H   0  0  0  0  0  0  0  0  0  0  0  0
    2.1241    2.9099   -0.1249 H   0  0  0  0  0  0  0  0  0  0  0  0
    3.5244   -0.9665    1.5882 H   0  0  0  0  0  0  0  0  0  0  0  0
    3.4923   -2.0504    0.1926 H   0  0  0  0  0  0  0  0  0  0  0  0
    4.4378   -0.5485    0.1338 H   0  0  0  0  0  0  0  0  0  0  0  0
    1.4695    0.2198   -2.0647 H   0  0  0  0  0  0  0  0  0  0  0  0
    3.2016    0.0855   -1.9578 H   0  0  0  0  0  0  0  0  0  0  0  0
    2.1945   -1.3563   -1.8814 H   0  0  0  0  0  0  0  0  0  0  0  0
   -3.0227   -0.1099   -0.7034 H   0  0  0  0  0  0  0  0  0  0  0  0
   -3.4500    0.2046    0.9928 H   0  0  0  0  0  0  0  0  0  0  0  0
   -2.1700   -1.7272    1.7387 H   0  0  0  0  0  0  0  0  0  0  0  0
   -3.0728   -2.3035    0.3159 H   0  0  0  0  0  0  0  0  0  0  0  0
   -0.0260    3.7817    0.0165 H   0  0  0  0  0  0  0  0  0  0  0  0
    0.1024    2.8089    1.4683 H   0  0  0  0  0  0  0  0  0  0  0  0
    0.7936   -3.0932   -0.0380 H   0  0  0  0  0  0  0  0  0  0  0  0
    0.0671   -2.8295    1.5671 H   0  0  0  0  0  0  0  0  0  0  0  0
   -0.6955   -3.9106    0.3952 H   0  0  0  0  0  0  0  0  0  0  0  0
   -1.7421   -2.9778   -1.4528 H   0  0  0  0  0  0  0  0  0  0  0  0
   -3.0762    2.0991   -1.0387 H   0  0  0  0  0  0  0  0  0  0  0  0
   -2.0234    3.6081   -1.1020 H   0  0  0  0  0  0  0  0  0  0  0  0
  1  7  1  0  0  0  0
  1 38  1  0  0  0  0
  2  3  1  0  0  0  0
  2  4  1  0  0  0  0
  2  5  1  0  0  0  0
  2 17  1  0  0  0  0
  3  4  1  0  0  0  0
  3  9  1  0  0  0  0
  3 10  1  0  0  0  0
  4  8  1  0  0  0  0
  4 18  1  0  0  0  0
  5  6  1  0  0  0  0
  5  7  1  0  0  0  0
  5 19  1  0  0  0  0
  6 11  1  0  0  0  0
  6 14  1  0  0  0  0
  6 20  1  0  0  0  0
  7 12  1  0  0  0  0
  7 15  1  0  0  0  0
  8 13  1  0  0  0  0
  8 21  1  0  0  0  0
  8 22  1  0  0  0  0
  9 23  1  0  0  0  0
  9 24  1  0  0  0  0
  9 25  1  0  0  0  0
 10 26  1  0  0  0  0
 10 27  1  0  0  0  0
 10 28  1  0  0  0  0
 11 12  1  0  0  0  0
 11 29  1  0  0  0  0
 11 30  1  0  0  0  0
 12 31  1  0  0  0  0
 12 32  1  0  0  0  0
 13 14  1  0  0  0  0
 13 33  1  0  0  0  0
 13 34  1  0  0  0  0
 14 16  2  0  0  0  0
 15 35  1  0  0  0  0
 15 36  1  0  0  0  0
 15 37  1  0  0  0  0
 16 39  1  0  0  0  0
 16 40  1  0  0  0  0
M  END
> <PUBCHEM_COMPOUND_CID>
13854255

> <PUBCHEM_CONFORMER_RMSD>
0.6

> <PUBCHEM_CONFORMER_DIVERSEORDER>
1
2

> <PUBCHEM_MMFF94_PARTIAL_CHARGES>
18
1 -0.68
10 0.09
13 0.14
14 -0.28
16 -0.3
17 0.1
18 0.1
2 -0.19
3 -0.19
38 0.4
39 0.15
4 -0.19
40 0.15
5 0.09
6 0.14
7 0.28
8 0.09
9 0.09

> <PUBCHEM_EFFECTIVE_ROTOR_COUNT>
1.2

> <PUBCHEM_PHARMACOPHORE_FEATURES>
5
1 1 acceptor
1 1 donor
3 3 9 10 hydrophobe
5 5 6 7 11 12 rings
7 2 4 5 6 8 13 14 rings

> <PUBCHEM_HEAVY_ATOM_COUNT>
16

> <PUBCHEM_ATOM_DEF_STEREO_COUNT>
5

> <PUBCHEM_ATOM_UDEF_STEREO_COUNT>
0

> <PUBCHEM_BOND_DEF_STEREO_COUNT>
0

> <PUBCHEM_BOND_UDEF_STEREO_COUNT>
0

> <PUBCHEM_ISOTOPIC_ATOM_COUNT>
0

> <PUBCHEM_COMPONENT_COUNT>
1

> <PUBCHEM_CACTVS_TAUTO_COUNT>
1

> <PUBCHEM_CONFORMER_ID>
00D3662F00000001

> <PUBCHEM_MMFF94_ENERGY>
53.9308

> <PUBCHEM_FEATURE_SELFOVERLAP>
25.394

> <PUBCHEM_SHAPE_FINGERPRINT>
10967382 1 17977385267372662651
11578080 2 17242701330764405044
12524768 44 18054800738697091807
12696612 119 17472142151001071193
13140716 1 18338524131119377329
13172582 1 18341060648209141849
13380535 76 17904757787188608265
14251711 518 17837497710090499134
14614273 12 18117278056125952845
15881359 60 17917700314541912813
16945 1 18335428928335105115
193761 8 18337950220056566448
19868273 325 18266470986208768110
20510252 161 18342175510314063856
20511035 2 17832980546972349019
20645476 183 17751382602472784294
20871998 184 18342175531646208686
21501502 16 18126005107437847954
22802520 49 18053970577506376230
2334 1 18122628520214141555
23402539 116 18199451208499400260
23419403 2 17056072489990738513
23552423 10 17330276585417438635
23557571 272 18271258179133910340
23559900 14 18126287438115812206
257057 1 18053644039643151062
2748010 2 18411417289111443425
3060560 45 18049419475583352165
589210 1 18195246843501891153
7364860 26 17623865912191183544
81228 2 18339919424022504433
90525 40 18264212413458445298

> <PUBCHEM_SHAPE_MULTIPOLES>
323.4
3.88
3.37
1.04
1.75
0.07
-0.34
-0.08
0
-1.55
-0.07
0.21
-0.19
0.19

> <PUBCHEM_SHAPE_SELFOVERLAP>
679.373

> <PUBCHEM_SHAPE_VOLUME>
185.2

> <PUBCHEM_COORDINATE_TYPE>
2
5
10

$$$$
