138859
  -OEChem-11232109183D

 53 53  0     0  0  0  0  0  0999 V2000
    2.2778   -0.2362   -1.6735 O   0  0  0  0  0  0  0  0  0  0  0  0
   -3.4087    0.3724   -0.8676 C   0  0  0  0  0  0  0  0  0  0  0  0
   -3.4196    1.9000   -0.9832 C   0  0  0  0  0  0  0  0  0  0  0  0
   -3.7632   -0.1415    0.5304 C   0  0  0  0  0  0  0  0  0  0  0  0
   -2.4251    2.6551   -0.0941 C   0  0  0  0  0  0  0  0  0  0  0  0
   -3.9468   -1.6664    0.5986 C   0  0  0  0  0  0  0  0  0  0  0  0
   -0.9628    2.2536   -0.3143 C   0  0  0  0  0  0  0  0  0  0  0  0
   -2.7941   -2.5071    0.0364 C   0  0  0  0  0  0  0  0  0  0  0  0
   -0.0089    3.2329    0.3824 C   0  0  0  0  0  0  0  0  0  0  0  0
   -1.4583   -2.2424    0.7299 C   0  0  0  0  0  0  0  0  0  0  0  0
    1.4679    2.8328    0.2615 C   0  0  0  0  0  0  0  0  0  0  0  0
   -0.2906   -2.9065   -0.0069 C   0  0  0  0  0  0  0  0  0  0  0  0
    1.8307    1.6663    1.1826 C   0  0  0  0  0  0  0  0  0  0  0  0
    1.0396   -2.3854    0.5375 C   0  0  0  0  0  0  0  0  0  0  0  0
    3.3126    1.2726    1.1529 C   0  0  0  0  0  0  0  0  0  0  0  0
    2.2305   -2.7464   -0.3554 C   0  0  0  0  0  0  0  0  0  0  0  0
    3.8442    0.7980   -0.1975 C   0  0  0  0  0  0  0  0  0  0  0  0
    3.3888   -1.7619   -0.1636 C   0  0  0  0  0  0  0  0  0  0  0  0
    3.0858   -0.3899   -0.7560 C   0  0  0  0  0  0  0  0  0  0  0  0
   -4.1352   -0.0266   -1.5867 H   0  0  0  0  0  0  0  0  0  0  0  0
   -2.4282   -0.0049   -1.1766 H   0  0  0  0  0  0  0  0  0  0  0  0
   -4.4298    2.2661   -0.7611 H   0  0  0  0  0  0  0  0  0  0  0  0
   -3.2221    2.1647   -2.0297 H   0  0  0  0  0  0  0  0  0  0  0  0
   -4.6981    0.3274    0.8620 H   0  0  0  0  0  0  0  0  0  0  0  0
   -2.9967    0.1664    1.2497 H   0  0  0  0  0  0  0  0  0  0  0  0
   -2.6875    2.5178    0.9614 H   0  0  0  0  0  0  0  0  0  0  0  0
   -2.5402    3.7264   -0.3024 H   0  0  0  0  0  0  0  0  0  0  0  0
   -4.8603   -1.9325    0.0521 H   0  0  0  0  0  0  0  0  0  0  0  0
   -4.1204   -1.9487    1.6443 H   0  0  0  0  0  0  0  0  0  0  0  0
   -0.7392    2.2370   -1.3878 H   0  0  0  0  0  0  0  0  0  0  0  0
   -0.8061    1.2396    0.0659 H   0  0  0  0  0  0  0  0  0  0  0  0
   -2.7041   -2.3224   -1.0404 H   0  0  0  0  0  0  0  0  0  0  0  0
   -3.0475   -3.5692    0.1427 H   0  0  0  0  0  0  0  0  0  0  0  0
   -0.2803    3.3355    1.4400 H   0  0  0  0  0  0  0  0  0  0  0  0
   -0.1342    4.2234   -0.0727 H   0  0  0  0  0  0  0  0  0  0  0  0
   -1.4978   -2.5984    1.7662 H   0  0  0  0  0  0  0  0  0  0  0  0
   -1.2728   -1.1645    0.7716 H   0  0  0  0  0  0  0  0  0  0  0  0
    2.0855    3.6981    0.5319 H   0  0  0  0  0  0  0  0  0  0  0  0
    1.6948    2.5909   -0.7823 H   0  0  0  0  0  0  0  0  0  0  0  0
   -0.3615   -2.6708   -1.0757 H   0  0  0  0  0  0  0  0  0  0  0  0
   -0.3439   -3.9964    0.0922 H   0  0  0  0  0  0  0  0  0  0  0  0
    1.2168    0.7976    0.9389 H   0  0  0  0  0  0  0  0  0  0  0  0
    1.5764    1.9387    2.2149 H   0  0  0  0  0  0  0  0  0  0  0  0
    1.2071   -2.7684    1.5514 H   0  0  0  0  0  0  0  0  0  0  0  0
    0.9690   -1.2994    0.6270 H   0  0  0  0  0  0  0  0  0  0  0  0
    3.4665    0.4829    1.8983 H   0  0  0  0  0  0  0  0  0  0  0  0
    3.9147    2.1280    1.4830 H   0  0  0  0  0  0  0  0  0  0  0  0
    1.9326   -2.7613   -1.4104 H   0  0  0  0  0  0  0  0  0  0  0  0
    2.5671   -3.7599   -0.1075 H   0  0  0  0  0  0  0  0  0  0  0  0
    4.8990    0.5137   -0.1076 H   0  0  0  0  0  0  0  0  0  0  0  0
    3.8090    1.6081   -0.9343 H   0  0  0  0  0  0  0  0  0  0  0  0
    4.2849   -2.1400   -0.6675 H   0  0  0  0  0  0  0  0  0  0  0  0
    3.6155   -1.6596    0.9022 H   0  0  0  0  0  0  0  0  0  0  0  0
  1 19  2  0  0  0  0
  2  3  1  0  0  0  0
  2  4  1  0  0  0  0
  2 20  1  0  0  0  0
  2 21  1  0  0  0  0
  3  5  1  0  0  0  0
  3 22  1  0  0  0  0
  3 23  1  0  0  0  0
  4  6  1  0  0  0  0
  4 24  1  0  0  0  0
  4 25  1  0  0  0  0
  5  7  1  0  0  0  0
  5 26  1  0  0  0  0
  5 27  1  0  0  0  0
  6  8  1  0  0  0  0
  6 28  1  0  0  0  0
  6 29  1  0  0  0  0
  7  9  1  0  0  0  0
  7 30  1  0  0  0  0
  7 31  1  0  0  0  0
  8 10  1  0  0  0  0
  8 32  1  0  0  0  0
  8 33  1  0  0  0  0
  9 11  1  0  0  0  0
  9 34  1  0  0  0  0
  9 35  1  0  0  0  0
 10 12  1  0  0  0  0
 10 36  1  0  0  0  0
 10 37  1  0  0  0  0
 11 13  1  0  0  0  0
 11 38  1  0  0  0  0
 11 39  1  0  0  0  0
 12 14  1  0  0  0  0
 12 40  1  0  0  0  0
 12 41  1  0  0  0  0
 13 15  1  0  0  0  0
 13 42  1  0  0  0  0
 13 43  1  0  0  0  0
 14 16  1  0  0  0  0
 14 44  1  0  0  0  0
 14 45  1  0  0  0  0
 15 17  1  0  0  0  0
 15 46  1  0  0  0  0
 15 47  1  0  0  0  0
 16 18  1  0  0  0  0
 16 48  1  0  0  0  0
 16 49  1  0  0  0  0
 17 19  1  0  0  0  0
 17 50  1  0  0  0  0
 17 51  1  0  0  0  0
 18 19  1  0  0  0  0
 18 52  1  0  0  0  0
 18 53  1  0  0  0  0
M  END
> <PUBCHEM_COMPOUND_CID>
138859

> <PUBCHEM_CONFORMER_RMSD>
0.6

> <PUBCHEM_CONFORMER_DIVERSEORDER>
1
80
41
50
113
42
97
36
31
58
6
102
4
56
29
72
39
88
24
44
3
73
26
62
91
8
22
120
118
95
5
61
107
34
52
66
45
25
92
70
17
35
119
84
20
77
96
112
33
85
100
115
54
40
86
27
71
55
81
87
114
47
51
106
78
90
64
105
93
98
89
19
43
117
14
101
32
69
18
82
28
46
53
74
57
16
30
108
116
12
67
103
104
76
79
13
83
94
37
99
68
23
110
2
48
111
65
38
60
63
59
7
10
49
21
9
109
75
15
11

> <PUBCHEM_MMFF94_PARTIAL_CHARGES>
4
1 -0.57
17 0.06
18 0.06
19 0.45

> <PUBCHEM_EFFECTIVE_ROTOR_COUNT>
3.4

> <PUBCHEM_PHARMACOPHORE_FEATURES>
1
1 1 acceptor

> <PUBCHEM_HEAVY_ATOM_COUNT>
19

> <PUBCHEM_ATOM_DEF_STEREO_COUNT>
0

> <PUBCHEM_ATOM_UDEF_STEREO_COUNT>
0

> <PUBCHEM_BOND_DEF_STEREO_COUNT>
0

> <PUBCHEM_BOND_UDEF_STEREO_COUNT>
0

> <PUBCHEM_ISOTOPIC_ATOM_COUNT>
0

> <PUBCHEM_COMPONENT_COUNT>
1

> <PUBCHEM_CACTVS_TAUTO_COUNT>
2

> <PUBCHEM_CONFORMER_ID>
00021E6B00000001

> <PUBCHEM_MMFF94_ENERGY>
9.5405

> <PUBCHEM_FEATURE_SELFOVERLAP>
5.074

> <PUBCHEM_SHAPE_FINGERPRINT>
10708813 3 18199488665178188451
10759866 29 17967817163249389048
108634 29 18268996388867754454
1100329 8 17618221702509831275
11014199 57 15600606703538281243
117890 22 18267869569679596137
12038231 1 18410573972424811385
12539773 59 17126751039039885361
12596599 1 17488186993493946853
13075007 39 17463714326346217499
13122387 1 18410573976725118377
13402501 40 18339361984338076353
14081887 123 18411132558723134479
14114211 80 17908739402060277014
14251705 54 18410293652842016449
14251745 187 18341325660629123304
14251757 17 18412261735716378633
14363568 33 17109060339029862401
14765038 42 18127438763121291104
14931854 50 18121779430775343159
14940714 1 9265590530435063075
15003188 8 16756891209828258033
15006816 218 18267018543447624587
15322687 12 17903908968839683517
15635459 17 18412258458645970225
17093844 170 18411692184493558512
17859628 37 17764028369293009894
19930381 70 17761772167148967259
20397935 3 18191322660753732476
20621476 13 18411411838945222119
20765182 40 18410007750444834266
21141583 151 17909829834100912903
22749437 52 18261954029391447231
238918 7 18128517436152711688
3014063 31 18411138022143074555
3052486 1 18334288782486069288
3524813 1 18270120239557991707
5047190 48 17403447971913511192
6433294 58 18339361842683270216
9795274 37 18190740830055343458

> <PUBCHEM_SHAPE_MULTIPOLES>
385.14
7.66
4.8
1.09
1.62
0.22
0.09
-0.63
0.46
0.65
-0.45
-0.28
0.16
1.5

> <PUBCHEM_SHAPE_SELFOVERLAP>
721.362

> <PUBCHEM_SHAPE_VOLUME>
237.9

> <PUBCHEM_COORDINATE_TYPE>
2
5
10

$$$$
