14064911
  -OEChem-11232109203D

 38 38  0     1  0  0  0  0  0999 V2000
    1.0804   -0.3269    0.0778 O   0  0  0  0  0  0  0  0  0  0  0  0
    3.7987   -0.3844    0.7346 O   0  0  0  0  0  0  0  0  0  0  0  0
   -0.8612    1.0965   -0.2387 C   0  0  1  0  0  0  0  0  0  0  0  0
    0.0188   -0.0211   -0.8250 C   0  0  2  0  0  0  0  0  0  0  0  0
   -1.6065    0.6160    1.0157 C   0  0  0  0  0  0  0  0  0  0  0  0
   -1.5487   -1.7700    0.1575 C   0  0  1  0  0  0  0  0  0  0  0  0
   -0.7986   -1.2881   -1.0946 C   0  0  0  0  0  0  0  0  0  0  0  0
   -2.4187   -0.6477    0.7375 C   0  0  0  0  0  0  0  0  0  0  0  0
   -0.0450    2.3504    0.0807 C   0  0  0  0  0  0  0  0  0  0  0  0
   -2.3990   -2.9980   -0.1645 C   0  0  0  0  0  0  0  0  0  0  0  0
    0.7264    2.8137   -1.1517 C   0  0  0  0  0  0  0  0  0  0  0  0
   -0.9540    3.4619    0.5976 C   0  0  0  0  0  0  0  0  0  0  0  0
    1.9442   -1.3176   -0.4574 C   0  0  0  0  0  0  0  0  0  0  0  0
    3.0632   -1.5847    0.5307 C   0  0  0  0  0  0  0  0  0  0  0  0
   -1.6173    1.3517   -0.9957 H   0  0  0  0  0  0  0  0  0  0  0  0
    0.4453    0.3023   -1.7818 H   0  0  0  0  0  0  0  0  0  0  0  0
   -2.3108    1.3732    1.3746 H   0  0  0  0  0  0  0  0  0  0  0  0
   -0.8984    0.4224    1.8311 H   0  0  0  0  0  0  0  0  0  0  0  0
   -0.8127   -2.0661    0.9162 H   0  0  0  0  0  0  0  0  0  0  0  0
   -0.2242   -2.1043   -1.5387 H   0  0  0  0  0  0  0  0  0  0  0  0
   -1.5459   -1.0376   -1.8620 H   0  0  0  0  0  0  0  0  0  0  0  0
   -2.8903   -0.9854    1.6682 H   0  0  0  0  0  0  0  0  0  0  0  0
   -3.2319   -0.4073    0.0403 H   0  0  0  0  0  0  0  0  0  0  0  0
    0.6880    2.1346    0.8690 H   0  0  0  0  0  0  0  0  0  0  0  0
   -1.7746   -3.8136   -0.5443 H   0  0  0  0  0  0  0  0  0  0  0  0
   -2.9132   -3.3598    0.7321 H   0  0  0  0  0  0  0  0  0  0  0  0
   -3.1573   -2.7709   -0.9215 H   0  0  0  0  0  0  0  0  0  0  0  0
    1.1862    3.7925   -0.9733 H   0  0  0  0  0  0  0  0  0  0  0  0
    1.5459    2.1337   -1.4028 H   0  0  0  0  0  0  0  0  0  0  0  0
    0.0715    2.9113   -2.0244 H   0  0  0  0  0  0  0  0  0  0  0  0
   -1.8082    3.6279   -0.0676 H   0  0  0  0  0  0  0  0  0  0  0  0
   -0.4039    4.4073    0.6696 H   0  0  0  0  0  0  0  0  0  0  0  0
   -1.3292    3.2519    1.6035 H   0  0  0  0  0  0  0  0  0  0  0  0
    1.4438   -2.2772   -0.5951 H   0  0  0  0  0  0  0  0  0  0  0  0
    2.3579   -0.9681   -1.4102 H   0  0  0  0  0  0  0  0  0  0  0  0
    3.7442   -2.3598    0.1670 H   0  0  0  0  0  0  0  0  0  0  0  0
    2.6609   -1.8899    1.5015 H   0  0  0  0  0  0  0  0  0  0  0  0
    4.1681   -0.1175   -0.1244 H   0  0  0  0  0  0  0  0  0  0  0  0
  1  4  1  0  0  0  0
  1 13  1  0  0  0  0
  2 14  1  0  0  0  0
  2 38  1  0  0  0  0
  3  4  1  0  0  0  0
  3  5  1  0  0  0  0
  3  9  1  0  0  0  0
  3 15  1  0  0  0  0
  4  7  1  0  0  0  0
  4 16  1  0  0  0  0
  5  8  1  0  0  0  0
  5 17  1  0  0  0  0
  5 18  1  0  0  0  0
  6  7  1  0  0  0  0
  6  8  1  0  0  0  0
  6 10  1  0  0  0  0
  6 19  1  0  0  0  0
  7 20  1  0  0  0  0
  7 21  1  0  0  0  0
  8 22  1  0  0  0  0
  8 23  1  0  0  0  0
  9 11  1  0  0  0  0
  9 12  1  0  0  0  0
  9 24  1  0  0  0  0
 10 25  1  0  0  0  0
 10 26  1  0  0  0  0
 10 27  1  0  0  0  0
 11 28  1  0  0  0  0
 11 29  1  0  0  0  0
 11 30  1  0  0  0  0
 12 31  1  0  0  0  0
 12 32  1  0  0  0  0
 12 33  1  0  0  0  0
 13 14  1  0  0  0  0
 13 34  1  0  0  0  0
 13 35  1  0  0  0  0
 14 36  1  0  0  0  0
 14 37  1  0  0  0  0
M  END
> <PUBCHEM_COMPOUND_CID>
14064911

> <PUBCHEM_CONFORMER_RMSD>
0.6

> <PUBCHEM_CONFORMER_DIVERSEORDER>
3
108
106
111
79
12
50
25
66
47
29
42
15
85
30
48
74
8
82
35
26
103
62
86
56
49
90
64
46
68
16
69
59
105
94
37
33
78
72
31
58
55
36
20
81
67
61
52
71
80
51
41
97
22
54
93
34
87
73
104
101
99
23
70
91
39
76
98
77
60
4
32
38
95
102
84
89
63
44
53
9
96
5
11
83
28
7
17
57
27
92
107
100
109
88
6
43
2
10
19
14
21
1
65
18
75
13
24
45
110
40

> <PUBCHEM_MMFF94_PARTIAL_CHARGES>
6
1 -0.56
13 0.28
14 0.28
2 -0.68
38 0.4
4 0.28

> <PUBCHEM_EFFECTIVE_ROTOR_COUNT>
5.2

> <PUBCHEM_PHARMACOPHORE_FEATURES>
5
1 1 acceptor
1 2 acceptor
1 2 donor
3 9 11 12 hydrophobe
6 3 4 5 6 7 8 rings

> <PUBCHEM_HEAVY_ATOM_COUNT>
14

> <PUBCHEM_ATOM_DEF_STEREO_COUNT>
0

> <PUBCHEM_ATOM_UDEF_STEREO_COUNT>
3

> <PUBCHEM_BOND_DEF_STEREO_COUNT>
0

> <PUBCHEM_BOND_UDEF_STEREO_COUNT>
0

> <PUBCHEM_ISOTOPIC_ATOM_COUNT>
0

> <PUBCHEM_COMPONENT_COUNT>
1

> <PUBCHEM_CACTVS_TAUTO_COUNT>
1

> <PUBCHEM_CONFORMER_ID>
00D69D0F00000003

> <PUBCHEM_MMFF94_ENERGY>
30.4787

> <PUBCHEM_FEATURE_SELFOVERLAP>
25.375

> <PUBCHEM_SHAPE_FINGERPRINT>
1 1 17328859310380976263
12423570 1 11001462143743562295
14817 1 18198356069143154710
15490181 7 17476077925934885167
16945 1 18268443351213250031
19021347 11 17617664701091454615
20510252 161 18127127463875365384
20871998 184 18194690262947760719
21501502 16 18123758822942763711
21524375 3 17477752490797011628
21650355 55 18410283722888431186
21731228 192 17544753430900937448
220403 375 17181085531660253820
22112679 90 18127149647370918967
23388829 49 18053942028753050270
23402539 116 18196639710423443973
23419403 2 17342053244204146859
23552423 10 17906744944139656831
23598294 1 18118970178925201018
257057 1 18338508759099426843
305870 269 17546446038873539261
3250762 1 18045759437802811373
43471831 8 17329148481965480931
5255222 1 16536540764765624925
528862 383 17689429812009210271
54338 74 18336826394702713087
5706482 22 17688856554218603378
7364860 26 17907016527553574591
81228 2 18338235946971375998

> <PUBCHEM_SHAPE_MULTIPOLES>
276.37
4.01
3.84
1.06
0.88
5.28
0.1
-3.02
0.45
-0.94
-1.57
0.18
-0.02
0.23

> <PUBCHEM_SHAPE_SELFOVERLAP>
534.151

> <PUBCHEM_SHAPE_VOLUME>
168.2

> <PUBCHEM_COORDINATE_TYPE>
2
5
10

$$$$
