140649
  -OEChem-11232109053D

 25 24  0     0  0  0  0  0  0999 V2000
    1.7235    0.0905    0.2623 C   0  0  0  0  0  0  0  0  0  0  0  0
    1.2264    1.3211   -0.5039 C   0  0  0  0  0  0  0  0  0  0  0  0
    2.9699   -0.5043   -0.3941 C   0  0  0  0  0  0  0  0  0  0  0  0
   -0.0038    1.9647    0.1383 C   0  0  0  0  0  0  0  0  0  0  0  0
    3.4926   -1.7006    0.3851 C   0  0  0  0  0  0  0  0  0  0  0  0
   -1.1623    1.0612    0.1492 C   0  0  0  0  0  0  0  0  0  0  0  0
   -3.2582   -0.5907    0.1704 C   0  0  0  0  0  0  0  0  0  0  0  0
   -2.1069    0.3196    0.1586 C   0  0  0  0  0  0  0  0  0  0  0  0
   -2.8812   -1.9613   -0.3660 C   0  0  0  0  0  0  0  0  0  0  0  0
    0.9420   -0.6772    0.3018 H   0  0  0  0  0  0  0  0  0  0  0  0
    1.9522    0.3734    1.2971 H   0  0  0  0  0  0  0  0  0  0  0  0
    0.9964    1.0370   -1.5387 H   0  0  0  0  0  0  0  0  0  0  0  0
    2.0284    2.0682   -0.5488 H   0  0  0  0  0  0  0  0  0  0  0  0
    3.7580    0.2553   -0.4544 H   0  0  0  0  0  0  0  0  0  0  0  0
    2.7384   -0.8144   -1.4197 H   0  0  0  0  0  0  0  0  0  0  0  0
    0.2335    2.2748    1.1626 H   0  0  0  0  0  0  0  0  0  0  0  0
   -0.2596    2.8743   -0.4173 H   0  0  0  0  0  0  0  0  0  0  0  0
    4.3830   -2.1105   -0.1020 H   0  0  0  0  0  0  0  0  0  0  0  0
    3.7649   -1.4153    1.4063 H   0  0  0  0  0  0  0  0  0  0  0  0
    2.7395   -2.4932    0.4387 H   0  0  0  0  0  0  0  0  0  0  0  0
   -3.6403   -0.6925    1.1921 H   0  0  0  0  0  0  0  0  0  0  0  0
   -4.0683   -0.1725   -0.4372 H   0  0  0  0  0  0  0  0  0  0  0  0
   -2.0892   -2.4182    0.2375 H   0  0  0  0  0  0  0  0  0  0  0  0
   -3.7491   -2.6281   -0.3500 H   0  0  0  0  0  0  0  0  0  0  0  0
   -2.5203   -1.8967   -1.3983 H   0  0  0  0  0  0  0  0  0  0  0  0
  1  2  1  0  0  0  0
  1  3  1  0  0  0  0
  1 10  1  0  0  0  0
  1 11  1  0  0  0  0
  2  4  1  0  0  0  0
  2 12  1  0  0  0  0
  2 13  1  0  0  0  0
  3  5  1  0  0  0  0
  3 14  1  0  0  0  0
  3 15  1  0  0  0  0
  4  6  1  0  0  0  0
  4 16  1  0  0  0  0
  4 17  1  0  0  0  0
  5 18  1  0  0  0  0
  5 19  1  0  0  0  0
  5 20  1  0  0  0  0
  6  8  3  0  0  0  0
  7  8  1  0  0  0  0
  7  9  1  0  0  0  0
  7 21  1  0  0  0  0
  7 22  1  0  0  0  0
  9 23  1  0  0  0  0
  9 24  1  0  0  0  0
  9 25  1  0  0  0  0
M  END
> <PUBCHEM_COMPOUND_CID>
140649

> <PUBCHEM_CONFORMER_RMSD>
0.6

> <PUBCHEM_CONFORMER_DIVERSEORDER>
1
6
12
3
4
8
10
13
2
9
11
5
7

> <PUBCHEM_MMFF94_PARTIAL_CHARGES>
4
4 0.2
6 -0.2
7 0.2
8 -0.2

> <PUBCHEM_EFFECTIVE_ROTOR_COUNT>
3

> <PUBCHEM_PHARMACOPHORE_FEATURES>
3
1 5 hydrophobe
1 9 hydrophobe
5 1 2 3 4 6 hydrophobe

> <PUBCHEM_HEAVY_ATOM_COUNT>
9

> <PUBCHEM_ATOM_DEF_STEREO_COUNT>
0

> <PUBCHEM_ATOM_UDEF_STEREO_COUNT>
0

> <PUBCHEM_BOND_DEF_STEREO_COUNT>
0

> <PUBCHEM_BOND_UDEF_STEREO_COUNT>
0

> <PUBCHEM_ISOTOPIC_ATOM_COUNT>
0

> <PUBCHEM_COMPONENT_COUNT>
1

> <PUBCHEM_CACTVS_TAUTO_COUNT>
1

> <PUBCHEM_CONFORMER_ID>
0002256900000001

> <PUBCHEM_MMFF94_ENERGY>
-4.2506

> <PUBCHEM_FEATURE_SELFOVERLAP>
15.223

> <PUBCHEM_SHAPE_FINGERPRINT>
10149128 76 9007066763700712245
14128692 85 18335989722141428452
14390081 3 8718834180141577657
18342897 69 18339924814148464410
20211469 16 18411700967511371652
20645477 70 18191296294545568231
20653085 51 9223227485752284684
20711985 365 18338238167849613997
20724930 33 18411134693374602038
22485316 2 18410291406468502116
23500284 5 18412269397879999289
23552423 10 18049447234172893325

> <PUBCHEM_SHAPE_MULTIPOLES>
185.22
6.19
2.19
0.71
0.7
0.19
0.02
4.74
-0.1
-0.08
0.05
0.09
0.02
-0.5

> <PUBCHEM_SHAPE_SELFOVERLAP>
329.212

> <PUBCHEM_SHAPE_VOLUME>
118.9

> <PUBCHEM_COORDINATE_TYPE>
2
5
10

$$$$
