140615
  -OEChem-11232108543D

 27 26  0     0  0  0  0  0  0999 V2000
    0.6431   -0.4285    0.1244 O   0  0  0  0  0  0  0  0  0  0  0  0
   -0.7477    1.4111    0.1559 O   0  0  0  0  0  0  0  0  0  0  0  0
    3.0395   -0.4195   -0.0510 C   0  0  0  0  0  0  0  0  0  0  0  0
    4.2967    0.4387   -0.1593 C   0  0  0  0  0  0  0  0  0  0  0  0
    1.7802    0.4332    0.0085 C   0  0  0  0  0  0  0  0  0  0  0  0
    5.5544   -0.4151   -0.1750 C   0  0  0  0  0  0  0  0  0  0  0  0
   -1.6537   -0.8493    0.2970 C   0  0  0  0  0  0  0  0  0  0  0  0
   -0.5688    0.2011    0.1889 C   0  0  0  0  0  0  0  0  0  0  0  0
   -3.0005   -0.2047    0.4132 C   0  0  0  0  0  0  0  0  0  0  0  0
   -3.9994   -0.4028   -0.4595 C   0  0  0  0  0  0  0  0  0  0  0  0
   -5.3438    0.2357   -0.3431 C   0  0  0  0  0  0  0  0  0  0  0  0
    2.9739   -1.1078   -0.9030 H   0  0  0  0  0  0  0  0  0  0  0  0
    3.0886   -1.0540    0.8429 H   0  0  0  0  0  0  0  0  0  0  0  0
    4.3472    1.1344    0.6864 H   0  0  0  0  0  0  0  0  0  0  0  0
    4.2580    1.0418   -1.0738 H   0  0  0  0  0  0  0  0  0  0  0  0
    1.8170    1.1002    0.8778 H   0  0  0  0  0  0  0  0  0  0  0  0
    1.6880    1.0333   -0.9043 H   0  0  0  0  0  0  0  0  0  0  0  0
    5.6398   -1.0051    0.7431 H   0  0  0  0  0  0  0  0  0  0  0  0
    5.5509   -1.1027   -1.0267 H   0  0  0  0  0  0  0  0  0  0  0  0
    6.4425    0.2197   -0.2545 H   0  0  0  0  0  0  0  0  0  0  0  0
   -1.5971   -1.4972   -0.5845 H   0  0  0  0  0  0  0  0  0  0  0  0
   -1.4705   -1.4494    1.1947 H   0  0  0  0  0  0  0  0  0  0  0  0
   -3.1647    0.4437    1.2709 H   0  0  0  0  0  0  0  0  0  0  0  0
   -3.8448   -1.0575   -1.3129 H   0  0  0  0  0  0  0  0  0  0  0  0
   -6.1169   -0.5350   -0.2689 H   0  0  0  0  0  0  0  0  0  0  0  0
   -5.5463    0.8418   -1.2313 H   0  0  0  0  0  0  0  0  0  0  0  0
   -5.4217    0.8829    0.5363 H   0  0  0  0  0  0  0  0  0  0  0  0
  1  5  1  0  0  0  0
  1  8  1  0  0  0  0
  2  8  2  0  0  0  0
  3  4  1  0  0  0  0
  3  5  1  0  0  0  0
  3 12  1  0  0  0  0
  3 13  1  0  0  0  0
  4  6  1  0  0  0  0
  4 14  1  0  0  0  0
  4 15  1  0  0  0  0
  5 16  1  0  0  0  0
  5 17  1  0  0  0  0
  6 18  1  0  0  0  0
  6 19  1  0  0  0  0
  6 20  1  0  0  0  0
  7  8  1  0  0  0  0
  7  9  1  0  0  0  0
  7 21  1  0  0  0  0
  7 22  1  0  0  0  0
  9 10  2  3  0  0  0
  9 23  1  0  0  0  0
 10 11  1  0  0  0  0
 10 24  1  0  0  0  0
 11 25  1  0  0  0  0
 11 26  1  0  0  0  0
 11 27  1  0  0  0  0
M  END
> <PUBCHEM_COMPOUND_CID>
140615

> <PUBCHEM_CONFORMER_RMSD>
0.6

> <PUBCHEM_CONFORMER_DIVERSEORDER>
1
279
22
185
14
89
136
286
408
130
84
7
355
406
34
275
138
215
293
383
5
265
92
172
368
258
127
108
217
101
393
86
26
100
367
203
73
152
384
257
13
308
386
192
322
18
288
17
310
334
211
333
3
352
107
170
401
76
274
305
349
397
289
36
316
370
304
139
392
219
104
58
38
325
161
407
160
311
250
46
72
263
303
39
197
298
57
15
173
208
374
394
184
56
166
285
231
88
379
296
91
299
270
200
229
103
150
174
198
63
375
402
261
282
12
195
190
387
409
71
312
357
361
134
234
8
224
276
365
364
25
191
145
207
97
55
149
373
201
49
236
318
332
53
264
61
168
360
202
133
223
178
155
256
302
294
102
378
132
350
123
377
112
40
95
118
20
321
156
93
254
301
220
327
148
44
117
214
69
232
260
249
16
188
52
2
267
169
309
199
235
111
167
380
336
126
324
306
85
99
243
252
30
283
320
142
343
369
4
79
344
24
371
171
186
244
313
233
341
213
159
43
114
269
228
353
400
297
281
230
83
266
319
181
81
247
154
346
47
382
77
356
404
144
206
151
116
218
347
259
366
153
122
331
10
193
131
338
315
115
165
110
396
251
129
226
411
272
51
278
66
210
362
273
329
128
410
284
175
35
137
221
205
388
105
209
280
389
94
33
146
125
212
45
307
29
326
238
67
291
239
164
96
248
227
403
339
163
82
64
68
70
240
54
330
42
87
351
253
245
300
225
277
242
183
363
328
268
21
106
314
287
31
399
74
109
395
189
405
78
98
121
255
398
176
113
385
180
372
27
391
241
162
11
80
124
354
337
6
182
140
60
222
390
141
90
376
65
23
179
340
19
59
32
358
120
194
381
28
158
246
359
317
147
262
290
292
157
348
204
271
41
9
237
75
323
37
345
177
119
62
295
48
216
187
135
196
50
335
342
143

> <PUBCHEM_MMFF94_PARTIAL_CHARGES>
10
1 -0.43
10 -0.29
11 0.14
2 -0.57
23 0.15
24 0.15
5 0.28
7 0.2
8 0.66
9 -0.29

> <PUBCHEM_EFFECTIVE_ROTOR_COUNT>
6

> <PUBCHEM_PHARMACOPHORE_FEATURES>
3
1 11 hydrophobe
1 2 acceptor
1 6 hydrophobe

> <PUBCHEM_HEAVY_ATOM_COUNT>
11

> <PUBCHEM_ATOM_DEF_STEREO_COUNT>
0

> <PUBCHEM_ATOM_UDEF_STEREO_COUNT>
0

> <PUBCHEM_BOND_DEF_STEREO_COUNT>
0

> <PUBCHEM_BOND_UDEF_STEREO_COUNT>
1

> <PUBCHEM_ISOTOPIC_ATOM_COUNT>
0

> <PUBCHEM_COMPONENT_COUNT>
1

> <PUBCHEM_CACTVS_TAUTO_COUNT>
1

> <PUBCHEM_CONFORMER_ID>
0002254700000001

> <PUBCHEM_MMFF94_ENERGY>
1.3854

> <PUBCHEM_FEATURE_SELFOVERLAP>
15.223

> <PUBCHEM_SHAPE_FINGERPRINT>
11062470 55 17385442132903688147
11401426 45 18413105074062001719
12815109 37 18341894095324203742
14911166 2 18408321103354186427
15048467 5 16877939426059122109
15242439 84 18260548939519958130
17834072 33 16128369423879106288
17834072 8 18335133190157152477
17834076 25 17821728333967795295
18342897 14 11169908385885979799
187816 3 18040998444684700177
200 152 17989486311932984448
20279233 1 18272099300622339798
20645477 70 18337953377258546590
20719005 15 18343584053196411174
20767249 13 18343019999531372846
20767249 213 10159692500122903074
21119208 17 17894912940462030862
22485316 2 18272930535449345398
23218964 4 17967247585560147302
23402539 116 18272365378193691197
366044 4 18113617893660232387
42788 4 18410292518775224607
449060 50 9511460018246331618
68521 5 18410856525581439625

> <PUBCHEM_SHAPE_MULTIPOLES>
214.64
12.01
0.92
0.67
3.35
0.12
-0.01
-0.69
-1.97
-0.05
0.03
-0.18
-0.02
0.05

> <PUBCHEM_SHAPE_SELFOVERLAP>
393.059

> <PUBCHEM_SHAPE_VOLUME>
136.4

> <PUBCHEM_COORDINATE_TYPE>
2
5
10

$$$$
