14195263
  -OEChem-11232108503D

 31 31  0     1  0  0  0  0  0999 V2000
   -1.4704   -0.9136    0.5308 O   0  0  0  0  0  0  0  0  0  0  0  0
    1.6210   -2.8599    0.2277 O   0  0  0  0  0  0  0  0  0  0  0  0
   -2.6500   -0.9756   -1.4510 O   0  0  0  0  0  0  0  0  0  0  0  0
    0.7828   -1.7937    0.6684 C   0  0  2  0  0  0  0  0  0  0  0  0
   -0.6062   -1.9485    0.0505 C   0  0  0  0  0  0  0  0  0  0  0  0
    1.4369   -0.4797    0.3022 C   0  0  0  0  0  0  0  0  0  0  0  0
   -3.2721    0.5688    0.3219 C   0  0  0  0  0  0  0  0  0  0  0  0
   -2.4169    1.7772    0.6954 C   0  0  0  0  0  0  0  0  0  0  0  0
    2.2203   -0.4088   -0.8372 C   0  0  0  0  0  0  0  0  0  0  0  0
    1.2379    0.6242    1.1136 C   0  0  0  0  0  0  0  0  0  0  0  0
   -2.4552   -0.5224   -0.3315 C   0  0  0  0  0  0  0  0  0  0  0  0
   -1.7256    2.3685   -0.5223 C   0  0  0  0  0  0  0  0  0  0  0  0
    2.8233    0.8027   -1.1751 C   0  0  0  0  0  0  0  0  0  0  0  0
    1.8408    1.8358    0.7754 C   0  0  0  0  0  0  0  0  0  0  0  0
    2.6335    1.9250   -0.3689 C   0  0  0  0  0  0  0  0  0  0  0  0
    0.7178   -1.8622    1.7614 H   0  0  0  0  0  0  0  0  0  0  0  0
   -0.5230   -1.9390   -1.0441 H   0  0  0  0  0  0  0  0  0  0  0  0
   -1.0354   -2.9163    0.3349 H   0  0  0  0  0  0  0  0  0  0  0  0
   -4.0616    0.8679   -0.3774 H   0  0  0  0  0  0  0  0  0  0  0  0
   -3.7652    0.1517    1.2067 H   0  0  0  0  0  0  0  0  0  0  0  0
   -3.0602    2.5402    1.1489 H   0  0  0  0  0  0  0  0  0  0  0  0
   -1.6693    1.5062    1.4477 H   0  0  0  0  0  0  0  0  0  0  0  0
    2.3711   -1.2639   -1.4891 H   0  0  0  0  0  0  0  0  0  0  0  0
    0.6262    0.5639    2.0088 H   0  0  0  0  0  0  0  0  0  0  0  0
   -1.1686    3.2667   -0.2365 H   0  0  0  0  0  0  0  0  0  0  0  0
   -1.0155    1.6680   -0.9715 H   0  0  0  0  0  0  0  0  0  0  0  0
   -2.4548    2.6554   -1.2869 H   0  0  0  0  0  0  0  0  0  0  0  0
    3.4375    0.8736   -2.0680 H   0  0  0  0  0  0  0  0  0  0  0  0
    1.6924    2.7098    1.4029 H   0  0  0  0  0  0  0  0  0  0  0  0
    1.1994   -3.6942    0.4958 H   0  0  0  0  0  0  0  0  0  0  0  0
    3.1017    2.8687   -0.6327 H   0  0  0  0  0  0  0  0  0  0  0  0
  1  5  1  0  0  0  0
  1 11  1  0  0  0  0
  2  4  1  0  0  0  0
  2 30  1  0  0  0  0
  3 11  2  0  0  0  0
  4  5  1  0  0  0  0
  4  6  1  0  0  0  0
  4 16  1  0  0  0  0
  5 17  1  0  0  0  0
  5 18  1  0  0  0  0
  6  9  2  0  0  0  0
  6 10  1  0  0  0  0
  7  8  1  0  0  0  0
  7 11  1  0  0  0  0
  7 19  1  0  0  0  0
  7 20  1  0  0  0  0
  8 12  1  0  0  0  0
  8 21  1  0  0  0  0
  8 22  1  0  0  0  0
  9 13  1  0  0  0  0
  9 23  1  0  0  0  0
 10 14  2  0  0  0  0
 10 24  1  0  0  0  0
 12 25  1  0  0  0  0
 12 26  1  0  0  0  0
 12 27  1  0  0  0  0
 13 15  2  0  0  0  0
 13 28  1  0  0  0  0
 14 15  1  0  0  0  0
 14 29  1  0  0  0  0
 15 31  1  0  0  0  0
M  END
> <PUBCHEM_COMPOUND_CID>
14195263

> <PUBCHEM_CONFORMER_RMSD>
0.8

> <PUBCHEM_CONFORMER_DIVERSEORDER>
12
35
36
25
15
42
55
52
29
22
63
49
21
14
8
70
73
23
27
3
10
69
60
71
46
24
16
6
68
11
34
19
38
40
50
13
67
62
57
28
26
4
59
53
75
64
17
2
45
20
44
72
47
39
66
1
54
30
61
9
41
48
51
37
18
31
5
43
56
58
33
74
65
7
32

> <PUBCHEM_MMFF94_PARTIAL_CHARGES>
19
1 -0.43
10 -0.15
11 0.66
13 -0.15
14 -0.15
15 -0.15
2 -0.68
23 0.15
24 0.15
28 0.15
29 0.15
3 -0.57
30 0.4
31 0.15
4 0.42
5 0.28
6 -0.14
7 0.06
9 -0.15

> <PUBCHEM_EFFECTIVE_ROTOR_COUNT>
6

> <PUBCHEM_PHARMACOPHORE_FEATURES>
5
1 12 hydrophobe
1 2 acceptor
1 2 donor
1 3 acceptor
6 6 9 10 13 14 15 rings

> <PUBCHEM_HEAVY_ATOM_COUNT>
15

> <PUBCHEM_ATOM_DEF_STEREO_COUNT>
1

> <PUBCHEM_ATOM_UDEF_STEREO_COUNT>
0

> <PUBCHEM_BOND_DEF_STEREO_COUNT>
0

> <PUBCHEM_BOND_UDEF_STEREO_COUNT>
0

> <PUBCHEM_ISOTOPIC_ATOM_COUNT>
0

> <PUBCHEM_COMPONENT_COUNT>
1

> <PUBCHEM_CACTVS_TAUTO_COUNT>
1

> <PUBCHEM_CONFORMER_ID>
00D89A3F0000000C

> <PUBCHEM_MMFF94_ENERGY>
26.1987

> <PUBCHEM_FEATURE_SELFOVERLAP>
25.371

> <PUBCHEM_SHAPE_FINGERPRINT>
104564 63 16466984542221293841
10498660 4 18335700593844265429
12202030 40 14404608978717252847
128993 33 18340776952914200157
13132413 78 18121772829832861338
13693222 7 18335694997369821341
13764800 53 18042415792651223923
14250199 8 18337665305132291999
14251711 518 18342452617256143645
14251745 187 18271249446864192480
14386348 128 18339088085921513833
15775835 57 18340778052457268513
16945 1 18410292527492084682
18981168 100 17677049019328482605
20559304 39 18338793395171911691
20671657 1 18269838614378673529
21524375 3 18334575784563794658
22094290 62 18122906421783245723
22802520 49 18199203955964502692
23402539 116 17838040860476697038
23419403 2 8557924205291366918
23557571 272 17618516818709187268
238 59 16960946837239500741
25 1 18337686264388157922
2748010 2 17691402340248615665
2897 32 18266181634283323929
353137 74 18337953505653462545
44154327 71 18335711528915487821
526903 126 18196933485997047369
549884 4 18130793334426767561
7364860 26 18340204077296372706
7832392 63 18197214737460923963
81228 2 17258220095165546378

> <PUBCHEM_SHAPE_MULTIPOLES>
291.09
4.97
2.85
1.11
1.84
0.44
-0.14
-1.82
-0.99
-0.37
0.2
-0.13
-0.1
-0.39

> <PUBCHEM_SHAPE_SELFOVERLAP>
588.046

> <PUBCHEM_SHAPE_VOLUME>
169.7

> <PUBCHEM_COORDINATE_TYPE>
2
5
10

$$$$
