14234
  -OEChem-11232109053D

 43 42  0     1  0  0  0  0  0999 V2000
   -0.8084   -0.2425   -0.2240 O   0  0  0  0  0  0  0  0  0  0  0  0
   -1.8192   -0.3250    1.8475 O   0  0  0  0  0  0  0  0  0  0  0  0
    1.1905    0.9748   -0.8341 C   0  0  1  0  0  0  0  0  0  0  0  0
    0.1451    0.6993    0.2776 C   0  0  1  0  0  0  0  0  0  0  0  0
    1.9501   -0.2919   -1.2900 C   0  0  0  0  0  0  0  0  0  0  0  0
    0.5843    1.6760   -2.0604 C   0  0  0  0  0  0  0  0  0  0  0  0
   -3.9177   -1.0624   -0.5833 C   0  0  0  0  0  0  0  0  0  0  0  0
   -2.6433   -1.6863    0.0067 C   0  0  0  0  0  0  0  0  0  0  0  0
    2.6841   -0.9732   -0.1671 C   0  0  0  0  0  0  0  0  0  0  0  0
   -0.5979    1.9156    0.7577 C   0  0  0  0  0  0  0  0  0  0  0  0
   -1.7402   -0.6733    0.6773 C   0  0  0  0  0  0  0  0  0  0  0  0
   -3.5526   -0.0821   -1.6996 C   0  0  0  0  0  0  0  0  0  0  0  0
   -4.7369   -0.3420    0.4904 C   0  0  0  0  0  0  0  0  0  0  0  0
    3.9712   -0.8256    0.2004 C   0  0  0  0  0  0  0  0  0  0  0  0
   -0.2217    2.6525    1.8091 C   0  0  0  0  0  0  0  0  0  0  0  0
    4.8685    0.1266   -0.5456 C   0  0  0  0  0  0  0  0  0  0  0  0
    4.6441   -1.5405    1.3376 C   0  0  0  0  0  0  0  0  0  0  0  0
    1.9326    1.6707   -0.4162 H   0  0  0  0  0  0  0  0  0  0  0  0
    0.6588    0.2364    1.1307 H   0  0  0  0  0  0  0  0  0  0  0  0
    2.6336   -0.0485   -2.1109 H   0  0  0  0  0  0  0  0  0  0  0  0
    1.2443   -1.0149   -1.7197 H   0  0  0  0  0  0  0  0  0  0  0  0
    0.1387    2.6391   -1.7927 H   0  0  0  0  0  0  0  0  0  0  0  0
   -0.1895    1.0589   -2.5290 H   0  0  0  0  0  0  0  0  0  0  0  0
    1.3561    1.8751   -2.8120 H   0  0  0  0  0  0  0  0  0  0  0  0
   -4.5272   -1.8686   -1.0090 H   0  0  0  0  0  0  0  0  0  0  0  0
   -2.0770   -2.2221   -0.7651 H   0  0  0  0  0  0  0  0  0  0  0  0
   -2.9034   -2.4401    0.7601 H   0  0  0  0  0  0  0  0  0  0  0  0
    2.0788   -1.6708    0.4107 H   0  0  0  0  0  0  0  0  0  0  0  0
   -1.4692    2.2381    0.1924 H   0  0  0  0  0  0  0  0  0  0  0  0
   -3.0336    0.8043   -1.3221 H   0  0  0  0  0  0  0  0  0  0  0  0
   -2.9155   -0.5611   -2.4505 H   0  0  0  0  0  0  0  0  0  0  0  0
   -4.4587    0.2647   -2.2086 H   0  0  0  0  0  0  0  0  0  0  0  0
   -4.2202    0.5390    0.8849 H   0  0  0  0  0  0  0  0  0  0  0  0
   -5.6918   -0.0023    0.0744 H   0  0  0  0  0  0  0  0  0  0  0  0
   -4.9589   -1.0136    1.3263 H   0  0  0  0  0  0  0  0  0  0  0  0
   -0.7879    3.5320    2.0951 H   0  0  0  0  0  0  0  0  0  0  0  0
    0.6515    2.3933    2.3975 H   0  0  0  0  0  0  0  0  0  0  0  0
    5.6002   -0.4343   -1.1365 H   0  0  0  0  0  0  0  0  0  0  0  0
    4.3441    0.8123   -1.2145 H   0  0  0  0  0  0  0  0  0  0  0  0
    5.4166    0.7554    0.1653 H   0  0  0  0  0  0  0  0  0  0  0  0
    3.9579   -2.2303    1.8400 H   0  0  0  0  0  0  0  0  0  0  0  0
    5.0026   -0.8234    2.0828 H   0  0  0  0  0  0  0  0  0  0  0  0
    5.4958   -2.1229    0.9718 H   0  0  0  0  0  0  0  0  0  0  0  0
  1  4  1  0  0  0  0
  1 11  1  0  0  0  0
  2 11  2  0  0  0  0
  3  4  1  0  0  0  0
  3  5  1  0  0  0  0
  3  6  1  0  0  0  0
  3 18  1  0  0  0  0
  4 10  1  0  0  0  0
  4 19  1  0  0  0  0
  5  9  1  0  0  0  0
  5 20  1  0  0  0  0
  5 21  1  0  0  0  0
  6 22  1  0  0  0  0
  6 23  1  0  0  0  0
  6 24  1  0  0  0  0
  7  8  1  0  0  0  0
  7 12  1  0  0  0  0
  7 13  1  0  0  0  0
  7 25  1  0  0  0  0
  8 11  1  0  0  0  0
  8 26  1  0  0  0  0
  8 27  1  0  0  0  0
  9 14  2  0  0  0  0
  9 28  1  0  0  0  0
 10 15  2  0  0  0  0
 10 29  1  0  0  0  0
 12 30  1  0  0  0  0
 12 31  1  0  0  0  0
 12 32  1  0  0  0  0
 13 33  1  0  0  0  0
 13 34  1  0  0  0  0
 13 35  1  0  0  0  0
 14 16  1  0  0  0  0
 14 17  1  0  0  0  0
 15 36  1  0  0  0  0
 15 37  1  0  0  0  0
 16 38  1  0  0  0  0
 16 39  1  0  0  0  0
 16 40  1  0  0  0  0
 17 41  1  0  0  0  0
 17 42  1  0  0  0  0
 17 43  1  0  0  0  0
M  END
> <PUBCHEM_COMPOUND_CID>
14234

> <PUBCHEM_CONFORMER_RMSD>
1

> <PUBCHEM_CONFORMER_DIVERSEORDER>
1
10
216
285
339
555
401
513
378
204
288
332
271
16
101
65
44
156
114
48
105
55
519
292
363
250
190
84
74
413
26
527
116
242
448
21
397
30
70
558
554
15
258
88
205
179
6
17
392
244
330
345
275
92
334
34
529
273
186
264
2
287
304
158
7
367
47
142
121
355
124
118
23
43
169
52
407
388
32
227
380
51
133
107
371
230
62
138
327
85
69
289
207
38
446
231
490
5
282
99
320
31
353
475
294
103
27
147
8
254
326
46
449
82
135
482
503
108
29
222
12
276
404
20
500
18
243
45
405
36
463
77
11
175
75
63
9
41
131
381
149
359
369
191
225
89
197
68
14
493
560
202
218
120
496
4
256
127
50
122
416
263
72
193
553
556
241
340
347
518
60
170
486
280
37
126
393
455
162
479
53
94
535
187
96
87
506
210

> <PUBCHEM_MMFF94_PARTIAL_CHARGES>
16
1 -0.43
10 -0.29
11 0.66
14 -0.28
15 -0.3
16 0.14
17 0.14
2 -0.57
28 0.15
29 0.15
36 0.15
37 0.15
4 0.42
5 0.14
8 0.06
9 -0.29

> <PUBCHEM_EFFECTIVE_ROTOR_COUNT>
8

> <PUBCHEM_PHARMACOPHORE_FEATURES>
5
1 15 hydrophobe
1 2 acceptor
1 6 hydrophobe
3 14 16 17 hydrophobe
3 7 12 13 hydrophobe

> <PUBCHEM_HEAVY_ATOM_COUNT>
17

> <PUBCHEM_ATOM_DEF_STEREO_COUNT>
0

> <PUBCHEM_ATOM_UDEF_STEREO_COUNT>
2

> <PUBCHEM_BOND_DEF_STEREO_COUNT>
0

> <PUBCHEM_BOND_UDEF_STEREO_COUNT>
0

> <PUBCHEM_ISOTOPIC_ATOM_COUNT>
0

> <PUBCHEM_COMPONENT_COUNT>
1

> <PUBCHEM_CACTVS_TAUTO_COUNT>
1

> <PUBCHEM_CONFORMER_ID>
0000379A00000001

> <PUBCHEM_MMFF94_ENERGY>
24.9899

> <PUBCHEM_FEATURE_SELFOVERLAP>
25.374

> <PUBCHEM_SHAPE_FINGERPRINT>
10366900 7 18202568380469035898
10465860 250 18343578547116942019
10610426 29 18336256907851401812
10922049 32 9439407951456936108
11045977 3 14405181793862743998
11132069 177 14692571047993009831
11458722 120 18260553286475234993
12553582 1 18057067828462488511
12815109 37 18343302573829950174
12916748 109 12829490350361836334
13004483 165 18113606860020747230
13083527 12 16987986327815807401
13134695 92 18199741600076676317
13549 16 17022617576493434919
14251751 93 15502920910352978711
14251757 17 16733254703533802476
15342168 16 14117218612512119962
17834072 14 18201996633726012937
18186145 218 13840263723233257606
18222031 100 17632574980960333134
200 152 18409165502514677102
204376 136 12679458694485270902
20600515 1 18341618130706176836
20626108 58 18042675272926766922
20645477 70 16805604733869865922
20671657 53 17967817149815991316
20711985 327 17560807670602830657
21250096 35 18412823607527850930
21304303 282 17547546215958242781
21524375 3 9655580699268893358
22079108 93 12607108634834184974
22802520 49 17241336913900561693
22854114 59 14333128580902369950
23402539 116 17560798827339177303
23419403 2 18197187387173194756
23526113 38 17897163739738409505
23557571 272 17346052073093949328
23559900 14 17095521804029246222
25 1 13262670422471509368
2637199 183 14201390573903502237
3086196 2 18271805666703698240
3286 77 18198621219677212215
347723 3 17822286851836675193
3729539 64 11532145670418223920
4990 188 14779265327840135179
5283173 99 18261381205229546004
57210444 14 12540698085366865712
81228 2 17700444440566080441
9882013 296 16415761933621248590

> <PUBCHEM_SHAPE_MULTIPOLES>
338.11
8.97
2.05
1.77
3.01
1.27
-0.19
-5.45
0.29
0
0.76
-0.13
0.71
-0.86

> <PUBCHEM_SHAPE_SELFOVERLAP>
642.413

> <PUBCHEM_SHAPE_VOLUME>
208.7

> <PUBCHEM_COORDINATE_TYPE>
2
5
10

$$$$
