146586
  -OEChem-11232109043D

 16 15  0     0  0  0  0  0  0999 V2000
   -2.5260   -0.1277   -0.7471 S   0  0  0  0  0  0  0  0  0  0  0  0
    0.9548    0.0371    0.0166 C   0  0  0  0  0  0  0  0  0  0  0  0
   -0.1684    0.7267    0.2943 C   0  0  0  0  0  0  0  0  0  0  0  0
    2.2636    0.6466   -0.4001 C   0  0  0  0  0  0  0  0  0  0  0  0
    0.9744   -1.4645    0.1234 C   0  0  0  0  0  0  0  0  0  0  0  0
   -1.4984    0.1818    0.7129 C   0  0  0  0  0  0  0  0  0  0  0  0
   -0.1254    1.8118    0.2057 H   0  0  0  0  0  0  0  0  0  0  0  0
    2.5557    0.2844   -1.3909 H   0  0  0  0  0  0  0  0  0  0  0  0
    2.2021    1.7388   -0.4477 H   0  0  0  0  0  0  0  0  0  0  0  0
    3.0506    0.3865    0.3149 H   0  0  0  0  0  0  0  0  0  0  0  0
    1.6261   -1.7704    0.9487 H   0  0  0  0  0  0  0  0  0  0  0  0
   -0.0017   -1.9267    0.2811 H   0  0  0  0  0  0  0  0  0  0  0  0
    1.3738   -1.8959   -0.8014 H   0  0  0  0  0  0  0  0  0  0  0  0
   -2.0044    0.9187    1.3457 H   0  0  0  0  0  0  0  0  0  0  0  0
   -1.4158   -0.7300    1.3102 H   0  0  0  0  0  0  0  0  0  0  0  0
   -3.6111   -0.5509   -0.0824 H   0  0  0  0  0  0  0  0  0  0  0  0
  1  6  1  0  0  0  0
  1 16  1  0  0  0  0
  2  3  2  0  0  0  0
  2  4  1  0  0  0  0
  2  5  1  0  0  0  0
  3  6  1  0  0  0  0
  3  7  1  0  0  0  0
  4  8  1  0  0  0  0
  4  9  1  0  0  0  0
  4 10  1  0  0  0  0
  5 11  1  0  0  0  0
  5 12  1  0  0  0  0
  5 13  1  0  0  0  0
  6 14  1  0  0  0  0
  6 15  1  0  0  0  0
M  END
> <PUBCHEM_COMPOUND_CID>
146586

> <PUBCHEM_CONFORMER_RMSD>
0.4

> <PUBCHEM_CONFORMER_DIVERSEORDER>
1
4
2
3

> <PUBCHEM_MMFF94_PARTIAL_CHARGES>
8
1 -0.41
16 0.18
2 -0.28
3 -0.29
4 0.14
5 0.14
6 0.37
7 0.15

> <PUBCHEM_EFFECTIVE_ROTOR_COUNT>
1

> <PUBCHEM_PHARMACOPHORE_FEATURES>
1
3 2 4 5 hydrophobe

> <PUBCHEM_HEAVY_ATOM_COUNT>
6

> <PUBCHEM_ATOM_DEF_STEREO_COUNT>
0

> <PUBCHEM_ATOM_UDEF_STEREO_COUNT>
0

> <PUBCHEM_BOND_DEF_STEREO_COUNT>
0

> <PUBCHEM_BOND_UDEF_STEREO_COUNT>
0

> <PUBCHEM_ISOTOPIC_ATOM_COUNT>
0

> <PUBCHEM_COMPONENT_COUNT>
1

> <PUBCHEM_CACTVS_TAUTO_COUNT>
1

> <PUBCHEM_CONFORMER_ID>
00023C9A00000001

> <PUBCHEM_MMFF94_ENERGY>
4.5042

> <PUBCHEM_FEATURE_SELFOVERLAP>
5.074

> <PUBCHEM_SHAPE_FINGERPRINT>
12897270 3 18408881862768902421
14390081 3 16225759727292914373
16714656 1 16988849397003643045
21040471 1 18336834207390649368
23552333 60 18272366426028684747
24536 1 17895485730053775545
29004967 10 18260275139544401441
5460574 1 8142090853196854425

> <PUBCHEM_SHAPE_MULTIPOLES>
127.33
3.35
1.14
0.86
1.01
0.41
-0.02
-0.23
-0.9
-0.46
0.04
0.31
-0.03
-0.21

> <PUBCHEM_SHAPE_SELFOVERLAP>
215.721

> <PUBCHEM_SHAPE_VOLUME>
86.5

> <PUBCHEM_COORDINATE_TYPE>
2
5
10

$$$$
