14818318
  -OEChem-11232109253D

 37 39  0     1  0  0  0  0  0999 V2000
   -0.5545    1.9001   -1.0794 O   0  0  0  0  0  0  0  0  0  0  0  0
    0.2667   -0.9847    0.7773 C   0  0  1  0  0  0  0  0  0  0  0  0
   -0.9282   -0.1941    0.1425 C   0  0  0  0  0  0  0  0  0  0  0  0
    1.4557   -0.8300   -0.2298 C   0  0  0  0  0  0  0  0  0  0  0  0
    1.3908    0.7178   -0.1557 C   0  0  1  0  0  0  0  0  0  0  0  0
    0.7965   -0.1887    2.0045 C   0  0  0  0  0  0  0  0  0  0  0  0
   -0.0988    0.9452   -0.4670 C   0  0  0  0  0  0  0  0  0  0  0  0
    1.5006    1.0226    1.3567 C   0  0  0  0  0  0  0  0  0  0  0  0
   -1.9708    0.3431    1.1351 C   0  0  0  0  0  0  0  0  0  0  0  0
   -1.7437   -0.9637   -0.9133 C   0  0  0  0  0  0  0  0  0  0  0  0
    2.7792   -1.4521    0.2705 C   0  0  0  0  0  0  0  0  0  0  0  0
    1.2357   -1.4061   -1.6413 C   0  0  0  0  0  0  0  0  0  0  0  0
    2.3394    1.5040   -1.0298 C   0  0  0  0  0  0  0  0  0  0  0  0
   -3.2592    0.4255    0.3312 C   0  0  0  0  0  0  0  0  0  0  0  0
   -3.2093   -0.8389   -0.5013 C   0  0  0  0  0  0  0  0  0  0  0  0
    0.0140   -2.0188    1.0271 H   0  0  0  0  0  0  0  0  0  0  0  0
    1.5065   -0.7871    2.5854 H   0  0  0  0  0  0  0  0  0  0  0  0
    0.0200    0.1209    2.7083 H   0  0  0  0  0  0  0  0  0  0  0  0
    0.9960    1.9575    1.6268 H   0  0  0  0  0  0  0  0  0  0  0  0
    2.5400    1.0937    1.6943 H   0  0  0  0  0  0  0  0  0  0  0  0
   -1.7154    1.3219    1.5541 H   0  0  0  0  0  0  0  0  0  0  0  0
   -2.1137   -0.3628    1.9627 H   0  0  0  0  0  0  0  0  0  0  0  0
   -1.4703   -2.0222   -0.9718 H   0  0  0  0  0  0  0  0  0  0  0  0
   -1.6259   -0.5279   -1.9117 H   0  0  0  0  0  0  0  0  0  0  0  0
    2.6681   -2.5367    0.3832 H   0  0  0  0  0  0  0  0  0  0  0  0
    3.5893   -1.2728   -0.4462 H   0  0  0  0  0  0  0  0  0  0  0  0
    3.1356   -1.0633    1.2263 H   0  0  0  0  0  0  0  0  0  0  0  0
    2.1639   -1.3773   -2.2248 H   0  0  0  0  0  0  0  0  0  0  0  0
    0.9161   -2.4522   -1.5858 H   0  0  0  0  0  0  0  0  0  0  0  0
    0.5092   -0.8535   -2.2389 H   0  0  0  0  0  0  0  0  0  0  0  0
    3.3830    1.2682   -0.7990 H   0  0  0  0  0  0  0  0  0  0  0  0
    2.1703    1.2964   -2.0917 H   0  0  0  0  0  0  0  0  0  0  0  0
    2.2000    2.5812   -0.8865 H   0  0  0  0  0  0  0  0  0  0  0  0
   -3.2568    1.3116   -0.3138 H   0  0  0  0  0  0  0  0  0  0  0  0
   -4.1455    0.4681    0.9707 H   0  0  0  0  0  0  0  0  0  0  0  0
   -3.4982   -1.7029    0.1093 H   0  0  0  0  0  0  0  0  0  0  0  0
   -3.8804   -0.7981   -1.3642 H   0  0  0  0  0  0  0  0  0  0  0  0
  1  7  2  0  0  0  0
  2  3  1  0  0  0  0
  2  4  1  0  0  0  0
  2  6  1  0  0  0  0
  2 16  1  0  0  0  0
  3  7  1  0  0  0  0
  3  9  1  0  0  0  0
  3 10  1  0  0  0  0
  4  5  1  0  0  0  0
  4 11  1  0  0  0  0
  4 12  1  0  0  0  0
  5  7  1  0  0  0  0
  5  8  1  0  0  0  0
  5 13  1  0  0  0  0
  6  8  1  0  0  0  0
  6 17  1  0  0  0  0
  6 18  1  0  0  0  0
  8 19  1  0  0  0  0
  8 20  1  0  0  0  0
  9 14  1  0  0  0  0
  9 21  1  0  0  0  0
  9 22  1  0  0  0  0
 10 15  1  0  0  0  0
 10 23  1  0  0  0  0
 10 24  1  0  0  0  0
 11 25  1  0  0  0  0
 11 26  1  0  0  0  0
 11 27  1  0  0  0  0
 12 28  1  0  0  0  0
 12 29  1  0  0  0  0
 12 30  1  0  0  0  0
 13 31  1  0  0  0  0
 13 32  1  0  0  0  0
 13 33  1  0  0  0  0
 14 15  1  0  0  0  0
 14 34  1  0  0  0  0
 14 35  1  0  0  0  0
 15 36  1  0  0  0  0
 15 37  1  0  0  0  0
M  END
> <PUBCHEM_COMPOUND_CID>
14818318

> <PUBCHEM_CONFORMER_RMSD>
0.6

> <PUBCHEM_CONFORMER_DIVERSEORDER>
1
2

> <PUBCHEM_MMFF94_PARTIAL_CHARGES>
4
1 -0.57
3 0.06
5 0.06
7 0.45

> <PUBCHEM_EFFECTIVE_ROTOR_COUNT>
1.4

> <PUBCHEM_PHARMACOPHORE_FEATURES>
4
1 1 acceptor
3 4 11 12 hydrophobe
5 3 9 10 14 15 rings
7 2 3 4 5 6 7 8 rings

> <PUBCHEM_HEAVY_ATOM_COUNT>
15

> <PUBCHEM_ATOM_DEF_STEREO_COUNT>
0

> <PUBCHEM_ATOM_UDEF_STEREO_COUNT>
2

> <PUBCHEM_BOND_DEF_STEREO_COUNT>
0

> <PUBCHEM_BOND_UDEF_STEREO_COUNT>
0

> <PUBCHEM_ISOTOPIC_ATOM_COUNT>
0

> <PUBCHEM_COMPONENT_COUNT>
1

> <PUBCHEM_CACTVS_TAUTO_COUNT>
1

> <PUBCHEM_CONFORMER_ID>
00E21C0E00000001

> <PUBCHEM_MMFF94_ENERGY>
65.05

> <PUBCHEM_FEATURE_SELFOVERLAP>
20.299

> <PUBCHEM_SHAPE_FINGERPRINT>
10353120 184 17749680575362705749
10863032 1 18337683030135391814
12326174 3 17749380503235619304
12423570 1 14117503376995753570
12491281 212 18199771243814093001
12932764 1 17561085851777410099
13024252 1 15944355003473238110
144361 1 18340492256468878663
14817 1 8023932291637472142
16945 1 18192434279909970672
20559304 39 17489592246790334491
21501502 16 18343304751404587013
23419403 2 17839429264774436728
23559900 14 16486145981352938158
2748010 2 17605295044928843218
5084963 1 18340194232978025282
528886 8 18336836401923804308
63268167 104 18334861653407879153
7364860 26 17346880061210457314

> <PUBCHEM_SHAPE_MULTIPOLES>
302.82
4.05
1.65
1.54
2.54
0.35
0.03
0.52
-0.06
-0.52
-0.26
-0.66
-0.42
-0.27

> <PUBCHEM_SHAPE_SELFOVERLAP>
656.416

> <PUBCHEM_SHAPE_VOLUME>
173.9

> <PUBCHEM_COORDINATE_TYPE>
2
5
10

$$$$
