14862
  -OEChem-11232109473D

 31 30  0     0  0  0  0  0  0999 V2000
    5.1312   -0.9935    0.4224 O   0  0  0  0  0  0  0  0  0  0  0  0
   -1.4118    0.3173   -0.2944 C   0  0  0  0  0  0  0  0  0  0  0  0
   -2.5861   -0.6314   -0.0362 C   0  0  0  0  0  0  0  0  0  0  0  0
   -0.0719   -0.3791   -0.0437 C   0  0  0  0  0  0  0  0  0  0  0  0
   -3.9630    0.0248   -0.2481 C   0  0  0  0  0  0  0  0  0  0  0  0
    1.1025    0.5755   -0.2701 C   0  0  0  0  0  0  0  0  0  0  0  0
    2.4406   -0.1140    0.0135 C   0  0  0  0  0  0  0  0  0  0  0  0
   -4.1774    1.2388    0.6570 C   0  0  0  0  0  0  0  0  0  0  0  0
   -5.0706   -1.0030   -0.0034 C   0  0  0  0  0  0  0  0  0  0  0  0
    3.6336    0.8063   -0.2305 C   0  0  0  0  0  0  0  0  0  0  0  0
    4.9729    0.1583    0.0335 C   0  0  0  0  0  0  0  0  0  0  0  0
   -1.4540    0.6839   -1.3268 H   0  0  0  0  0  0  0  0  0  0  0  0
   -1.4749    1.1890    0.3655 H   0  0  0  0  0  0  0  0  0  0  0  0
   -2.4958   -1.4992   -0.7022 H   0  0  0  0  0  0  0  0  0  0  0  0
   -2.5201   -1.0153    0.9901 H   0  0  0  0  0  0  0  0  0  0  0  0
    0.0233   -1.2449   -0.7100 H   0  0  0  0  0  0  0  0  0  0  0  0
   -0.0423   -0.7577    0.9854 H   0  0  0  0  0  0  0  0  0  0  0  0
   -4.0357    0.3582   -1.2910 H   0  0  0  0  0  0  0  0  0  0  0  0
    0.9989    1.4516    0.3814 H   0  0  0  0  0  0  0  0  0  0  0  0
    1.0875    0.9374   -1.3052 H   0  0  0  0  0  0  0  0  0  0  0  0
    2.4589   -0.4670    1.0523 H   0  0  0  0  0  0  0  0  0  0  0  0
    2.5352   -1.0055   -0.6192 H   0  0  0  0  0  0  0  0  0  0  0  0
   -4.0078    0.9857    1.7089 H   0  0  0  0  0  0  0  0  0  0  0  0
   -5.2015    1.6168    0.5624 H   0  0  0  0  0  0  0  0  0  0  0  0
   -3.5090    2.0623    0.3888 H   0  0  0  0  0  0  0  0  0  0  0  0
   -4.9536   -1.8663   -0.6671 H   0  0  0  0  0  0  0  0  0  0  0  0
   -5.0564   -1.3651    1.0304 H   0  0  0  0  0  0  0  0  0  0  0  0
   -6.0565   -0.5668   -0.1963 H   0  0  0  0  0  0  0  0  0  0  0  0
    3.5667    1.6894    0.4143 H   0  0  0  0  0  0  0  0  0  0  0  0
    3.6383    1.1483   -1.2713 H   0  0  0  0  0  0  0  0  0  0  0  0
    5.8456    0.8092   -0.1486 H   0  0  0  0  0  0  0  0  0  0  0  0
  1 11  2  0  0  0  0
  2  3  1  0  0  0  0
  2  4  1  0  0  0  0
  2 12  1  0  0  0  0
  2 13  1  0  0  0  0
  3  5  1  0  0  0  0
  3 14  1  0  0  0  0
  3 15  1  0  0  0  0
  4  6  1  0  0  0  0
  4 16  1  0  0  0  0
  4 17  1  0  0  0  0
  5  8  1  0  0  0  0
  5  9  1  0  0  0  0
  5 18  1  0  0  0  0
  6  7  1  0  0  0  0
  6 19  1  0  0  0  0
  6 20  1  0  0  0  0
  7 10  1  0  0  0  0
  7 21  1  0  0  0  0
  7 22  1  0  0  0  0
  8 23  1  0  0  0  0
  8 24  1  0  0  0  0
  8 25  1  0  0  0  0
  9 26  1  0  0  0  0
  9 27  1  0  0  0  0
  9 28  1  0  0  0  0
 10 11  1  0  0  0  0
 10 29  1  0  0  0  0
 10 30  1  0  0  0  0
 11 31  1  0  0  0  0
M  END
> <PUBCHEM_COMPOUND_CID>
14862

> <PUBCHEM_CONFORMER_RMSD>
0.6

> <PUBCHEM_CONFORMER_DIVERSEORDER>
1
39
80
13
34
62
2
28
5
51
84
6
26
49
33
83
73
10
35
36
78
3
25
82
44
31
57
38
54
58
77
76
16
53
74
42
24
69
9
18
48
60
12
37
79
81
27
8
43
86
63
7
45
23
71
20
66
11
29
50
17
72
15
64
85
21
4
32
52
75
19
47
41
68
40
30
65
67
59
14
56
55
61
46
70
22

> <PUBCHEM_MMFF94_PARTIAL_CHARGES>
4
1 -0.57
10 0.06
11 0.45
31 0.06

> <PUBCHEM_EFFECTIVE_ROTOR_COUNT>
7

> <PUBCHEM_PHARMACOPHORE_FEATURES>
2
1 1 acceptor
3 5 8 9 hydrophobe

> <PUBCHEM_HEAVY_ATOM_COUNT>
11

> <PUBCHEM_ATOM_DEF_STEREO_COUNT>
0

> <PUBCHEM_ATOM_UDEF_STEREO_COUNT>
0

> <PUBCHEM_BOND_DEF_STEREO_COUNT>
0

> <PUBCHEM_BOND_UDEF_STEREO_COUNT>
0

> <PUBCHEM_ISOTOPIC_ATOM_COUNT>
0

> <PUBCHEM_COMPONENT_COUNT>
1

> <PUBCHEM_CACTVS_TAUTO_COUNT>
2

> <PUBCHEM_CONFORMER_ID>
00003A0E00000001

> <PUBCHEM_MMFF94_ENERGY>
3.0348

> <PUBCHEM_FEATURE_SELFOVERLAP>
10.148

> <PUBCHEM_SHAPE_FINGERPRINT>
10680689 15 16370442263510945343
11062470 55 11671783775545881148
11401426 45 11167944662503208307
114248 4 10015860981403730676
14123238 8 18409167726996318230
15242439 84 13623526874753902797
17834072 33 18410574028132818254
17834076 25 10952053355234214487
20645477 70 18334575712113839926
20719005 15 18409448098213925990
20767249 13 18412824694090968046
20828058 44 18411419526878737575
23402539 116 18272927228867716757
42 15 18407760322369760214
42788 4 18342175574743626692
522135 26 17894631461818028996
57483677 66 18334853935082837346

> <PUBCHEM_SHAPE_MULTIPOLES>
220.51
12.86
1.06
0.69
4.62
0.08
0.01
-1.37
1.31
-0.57
0.11
-0.1
0.05
-0.53

> <PUBCHEM_SHAPE_SELFOVERLAP>
394.874

> <PUBCHEM_SHAPE_VOLUME>
142.9

> <PUBCHEM_COORDINATE_TYPE>
2
5
10

$$$$
