15031854
  -OEChem-11232109443D

 26 25  0     0  0  0  0  0  0999 V2000
    0.5093   -0.9203    0.0006 O   0  0  0  0  0  0  0  0  0  0  0  0
    2.9754    1.6937    0.6673 N   0  0  0  0  0  0  0  0  0  0  0  0
   -1.7241   -1.2460    0.8412 C   0  0  0  0  0  0  0  0  0  0  0  0
   -0.3550   -1.8730    0.6063 C   0  0  0  0  0  0  0  0  0  0  0  0
   -2.3701   -0.8226   -0.4480 C   0  0  0  0  0  0  0  0  0  0  0  0
    1.8002   -1.4647   -0.2368 C   0  0  0  0  0  0  0  0  0  0  0  0
   -2.5053    1.5931    0.2094 C   0  0  0  0  0  0  0  0  0  0  0  0
   -2.7178    0.4420   -0.7286 C   0  0  0  0  0  0  0  0  0  0  0  0
    2.6880   -0.4111   -0.8844 C   0  0  0  0  0  0  0  0  0  0  0  0
   -1.1486    2.2439   -0.0107 C   0  0  0  0  0  0  0  0  0  0  0  0
    2.8480    0.7649   -0.0162 C   0  0  0  0  0  0  0  0  0  0  0  0
   -2.3763   -1.9811    1.3271 H   0  0  0  0  0  0  0  0  0  0  0  0
   -1.5996   -0.4223    1.5475 H   0  0  0  0  0  0  0  0  0  0  0  0
    0.0667   -2.1922    1.5667 H   0  0  0  0  0  0  0  0  0  0  0  0
   -0.4465   -2.7533   -0.0419 H   0  0  0  0  0  0  0  0  0  0  0  0
   -2.5631   -1.5941   -1.1888 H   0  0  0  0  0  0  0  0  0  0  0  0
    2.2380   -1.7974    0.7125 H   0  0  0  0  0  0  0  0  0  0  0  0
    1.7160   -2.3289   -0.9061 H   0  0  0  0  0  0  0  0  0  0  0  0
   -3.2881    2.3350    0.0062 H   0  0  0  0  0  0  0  0  0  0  0  0
   -2.6412    1.3204    1.2599 H   0  0  0  0  0  0  0  0  0  0  0  0
   -3.1681    0.6592   -1.6936 H   0  0  0  0  0  0  0  0  0  0  0  0
    2.2398   -0.0883   -1.8313 H   0  0  0  0  0  0  0  0  0  0  0  0
    3.6683   -0.8436   -1.1109 H   0  0  0  0  0  0  0  0  0  0  0  0
   -1.0612    3.1452    0.6047 H   0  0  0  0  0  0  0  0  0  0  0  0
   -1.0100    2.5370   -1.0570 H   0  0  0  0  0  0  0  0  0  0  0  0
   -0.3322    1.5728    0.2682 H   0  0  0  0  0  0  0  0  0  0  0  0
  1  4  1  0  0  0  0
  1  6  1  0  0  0  0
  2 11  3  0  0  0  0
  3  4  1  0  0  0  0
  3  5  1  0  0  0  0
  3 12  1  0  0  0  0
  3 13  1  0  0  0  0
  4 14  1  0  0  0  0
  4 15  1  0  0  0  0
  5  8  2  0  0  0  0
  5 16  1  0  0  0  0
  6  9  1  0  0  0  0
  6 17  1  0  0  0  0
  6 18  1  0  0  0  0
  7  8  1  0  0  0  0
  7 10  1  0  0  0  0
  7 19  1  0  0  0  0
  7 20  1  0  0  0  0
  8 21  1  0  0  0  0
  9 11  1  0  0  0  0
  9 22  1  0  0  0  0
  9 23  1  0  0  0  0
 10 24  1  0  0  0  0
 10 25  1  0  0  0  0
 10 26  1  0  0  0  0
M  END
> <PUBCHEM_COMPOUND_CID>
15031854

> <PUBCHEM_CONFORMER_RMSD>
0.6

> <PUBCHEM_CONFORMER_DIVERSEORDER>
7
39
152
196
136
95
130
114
56
173
134
17
172
185
129
147
31
8
85
25
100
9
201
120
157
70
37
34
144
128
145
171
105
117
126
125
91
182
29
137
140
36
122
162
156
59
30
35
183
99
92
198
175
2
121
107
180
170
192
26
179
28
41
119
166
108
43
68
165
146
55
169
143
38
62
155
102
131
190
57
82
89
160
4
132
84
87
176
54
5
123
50
32
69
103
151
195
83
142
189
14
52
72
200
45
133
76
177
24
16
161
60
1
135
65
168
74
19
109
178
127
181
96
115
159
71
199
46
86
66
64
58
80
13
113
93
18
158
78
53
154
187
104
44
150
63
88
164
184
141
22
116
197
15
90
6
48
33
124
112
174
111
12
81
11
42
148
163
94
49
61
186
193
106
3
40
75
139
191
101
27
97
73
188
138
51
149
20
79
23
167
47
98
194
67
118
10
77
110
21
153

> <PUBCHEM_MMFF94_PARTIAL_CHARGES>
12
1 -0.56
11 0.36
16 0.15
2 -0.56
21 0.15
3 0.14
4 0.28
5 -0.29
6 0.28
7 0.14
8 -0.29
9 0.2

> <PUBCHEM_EFFECTIVE_ROTOR_COUNT>
6

> <PUBCHEM_PHARMACOPHORE_FEATURES>
3
1 1 acceptor
1 10 hydrophobe
1 2 acceptor

> <PUBCHEM_HEAVY_ATOM_COUNT>
11

> <PUBCHEM_ATOM_DEF_STEREO_COUNT>
0

> <PUBCHEM_ATOM_UDEF_STEREO_COUNT>
0

> <PUBCHEM_BOND_DEF_STEREO_COUNT>
1

> <PUBCHEM_BOND_UDEF_STEREO_COUNT>
0

> <PUBCHEM_ISOTOPIC_ATOM_COUNT>
0

> <PUBCHEM_COMPONENT_COUNT>
1

> <PUBCHEM_CACTVS_TAUTO_COUNT>
1

> <PUBCHEM_CONFORMER_ID>
00E55E2E00000007

> <PUBCHEM_MMFF94_ENERGY>
6.3001

> <PUBCHEM_FEATURE_SELFOVERLAP>
15.223

> <PUBCHEM_SHAPE_FINGERPRINT>
12162725 195 18411412886901573934
12932764 1 18341063989910605846
13764800 53 18113914757398931723
14251711 518 18050843325860783925
14251745 187 18271515502707928840
14390081 3 18409166614589557303
15775835 57 18193004711685911157
17846911 113 18335412513012317177
19973954 147 18410579465677563374
20201158 50 18341609351830148352
20304884 271 18267870475817176457
20653085 51 18199757933837088515
20828058 34 18334297547902280279
21524375 3 18045504119055873299
21947302 44 18412258424418048622
22802520 49 18270132218279828366
22959321 54 18409445865036725365
23557571 272 18197228141975168902
526903 126 18411694392106826393
66348 1 18336830796843958837
8050 44 18410002247758525180

> <PUBCHEM_SHAPE_MULTIPOLES>
215.52
5.29
2.43
0.89
2.11
0.64
-0.02
1.81
-0.57
-0.32
0.48
-0.01
-0.1
0.5

> <PUBCHEM_SHAPE_SELFOVERLAP>
394.245

> <PUBCHEM_SHAPE_VOLUME>
134.9

> <PUBCHEM_COORDINATE_TYPE>
2
5
10

$$$$
