15101542
  -OEChem-11232109013D

 30 29  0     0  0  0  0  0  0999 V2000
   -3.7711    1.4938   -0.5932 O   0  0  0  0  0  0  0  0  0  0  0  0
   -1.5078    1.6210   -0.5013 O   0  0  0  0  0  0  0  0  0  0  0  0
    2.7180   -0.0236    0.1717 C   0  0  0  0  0  0  0  0  0  0  0  0
    1.7327   -0.7007   -0.7827 C   0  0  0  0  0  0  0  0  0  0  0  0
   -1.0740   -1.6179   -0.2012 C   0  0  0  0  0  0  0  0  0  0  0  0
   -1.4280   -0.8377    1.0720 C   0  0  0  0  0  0  0  0  0  0  0  0
    3.0445    1.3984   -0.2853 C   0  0  0  0  0  0  0  0  0  0  0  0
    1.3869   -2.0845   -0.3164 C   0  0  0  0  0  0  0  0  0  0  0  0
    0.1358   -2.4927   -0.0574 C   0  0  0  0  0  0  0  0  0  0  0  0
   -2.6756    0.0403    0.9365 C   0  0  0  0  0  0  0  0  0  0  0  0
    3.9933    2.0901    0.6805 C   0  0  0  0  0  0  0  0  0  0  0  0
   -2.5546    1.1135   -0.1232 C   0  0  0  0  0  0  0  0  0  0  0  0
    3.6427   -0.6112    0.2342 H   0  0  0  0  0  0  0  0  0  0  0  0
    2.2895    0.0084    1.1817 H   0  0  0  0  0  0  0  0  0  0  0  0
    0.8621   -0.0518   -0.9000 H   0  0  0  0  0  0  0  0  0  0  0  0
    2.1910   -0.7830   -1.7761 H   0  0  0  0  0  0  0  0  0  0  0  0
   -1.9190   -2.2745   -0.4493 H   0  0  0  0  0  0  0  0  0  0  0  0
   -0.9861   -0.9554   -1.0676 H   0  0  0  0  0  0  0  0  0  0  0  0
   -1.5857   -1.5429    1.8978 H   0  0  0  0  0  0  0  0  0  0  0  0
   -0.5776   -0.2057    1.3580 H   0  0  0  0  0  0  0  0  0  0  0  0
    2.1225    1.9865   -0.3626 H   0  0  0  0  0  0  0  0  0  0  0  0
    3.4985    1.3736   -1.2827 H   0  0  0  0  0  0  0  0  0  0  0  0
    2.2033   -2.7905   -0.1881 H   0  0  0  0  0  0  0  0  0  0  0  0
   -0.0216   -3.5106    0.2892 H   0  0  0  0  0  0  0  0  0  0  0  0
   -3.5305   -0.5995    0.6881 H   0  0  0  0  0  0  0  0  0  0  0  0
   -2.8858    0.5364    1.8900 H   0  0  0  0  0  0  0  0  0  0  0  0
    4.9390    1.5446    0.7595 H   0  0  0  0  0  0  0  0  0  0  0  0
    4.2140    3.1045    0.3336 H   0  0  0  0  0  0  0  0  0  0  0  0
    3.5527    2.1614    1.6800 H   0  0  0  0  0  0  0  0  0  0  0  0
   -3.6971    2.2026   -1.2672 H   0  0  0  0  0  0  0  0  0  0  0  0
  1 12  1  0  0  0  0
  1 30  1  0  0  0  0
  2 12  2  0  0  0  0
  3  4  1  0  0  0  0
  3  7  1  0  0  0  0
  3 13  1  0  0  0  0
  3 14  1  0  0  0  0
  4  8  1  0  0  0  0
  4 15  1  0  0  0  0
  4 16  1  0  0  0  0
  5  6  1  0  0  0  0
  5  9  1  0  0  0  0
  5 17  1  0  0  0  0
  5 18  1  0  0  0  0
  6 10  1  0  0  0  0
  6 19  1  0  0  0  0
  6 20  1  0  0  0  0
  7 11  1  0  0  0  0
  7 21  1  0  0  0  0
  7 22  1  0  0  0  0
  8  9  2  0  0  0  0
  8 23  1  0  0  0  0
  9 24  1  0  0  0  0
 10 12  1  0  0  0  0
 10 25  1  0  0  0  0
 10 26  1  0  0  0  0
 11 27  1  0  0  0  0
 11 28  1  0  0  0  0
 11 29  1  0  0  0  0
M  END
> <PUBCHEM_COMPOUND_CID>
15101542

> <PUBCHEM_CONFORMER_RMSD>
0.8

> <PUBCHEM_CONFORMER_DIVERSEORDER>
1
35
114
80
197
10
27
127
204
9
101
191
77
29
186
41
165
76
140
52
19
83
61
8
150
195
166
91
123
28
45
25
144
149
102
72
201
37
115
75
132
177
21
54
175
124
196
43
112
90
13
34
4
104
62
187
31
38
136
184
56
2
69
106
95
163
198
126
60
53
47
81
82
154
181
30
180
66
171
20
46
5
16
48
153
67
39
173
40
141
32
147
87
134
99
131
59
179
200
7
125
143
100
202
12
64
169
78
22
14
11
152
92
139
42
135
116
105
133
142
68
174
151
15
129
79
128
108
50
158
23
138
24
183
120
97
86
130
88
58
6
192
109
111
18
160
17
156
178
118
84
36
122
65
51
199
107
172
117
159
57
121
93
63
33
3
119
170
161
94
193
103
182
148
70
203
145
26
157
49
55
110
85
189
71
162
89
113
137
96
185
190
194
167
188
98
168
176
44
155
73
146
164
74

> <PUBCHEM_MMFF94_PARTIAL_CHARGES>
11
1 -0.65
10 0.06
12 0.66
2 -0.57
23 0.15
24 0.15
30 0.5
4 0.14
5 0.14
8 -0.29
9 -0.29

> <PUBCHEM_EFFECTIVE_ROTOR_COUNT>
7

> <PUBCHEM_PHARMACOPHORE_FEATURES>
6
1 1 acceptor
1 11 hydrophobe
1 2 acceptor
3 1 2 12 anion
4 3 4 7 8 hydrophobe
4 5 6 9 10 hydrophobe

> <PUBCHEM_HEAVY_ATOM_COUNT>
12

> <PUBCHEM_ATOM_DEF_STEREO_COUNT>
0

> <PUBCHEM_ATOM_UDEF_STEREO_COUNT>
0

> <PUBCHEM_BOND_DEF_STEREO_COUNT>
1

> <PUBCHEM_BOND_UDEF_STEREO_COUNT>
0

> <PUBCHEM_ISOTOPIC_ATOM_COUNT>
0

> <PUBCHEM_COMPONENT_COUNT>
1

> <PUBCHEM_CACTVS_TAUTO_COUNT>
1

> <PUBCHEM_CONFORMER_ID>
00E66E6600000001

> <PUBCHEM_MMFF94_ENERGY>
2.742

> <PUBCHEM_FEATURE_SELFOVERLAP>
30.505

> <PUBCHEM_SHAPE_FINGERPRINT>
10149128 76 18411982451141437354
11127187 94 10663560182881769258
13618510 140 18411985749734511856
13897977 150 18337113350247766409
14250199 8 18127414445216485599
15775835 57 18271533082077220506
17834072 32 18339082713054829832
20605781 55 18412262869667021458
20671657 1 18268432334806992558
21524375 3 18342742965746544738
21947302 44 18266459802172055515
220403 375 18410292527624109258
22096605 113 18339077073772735103
23402539 116 17768243875204687054
23590187 152 18338517555271524872
23590187 32 18337114561423685028
27216 239 18190743231116089720
305870 269 18334856130338659386
328317 168 18339632421491702421
43658 37 18411692158792183389
8050 44 18409732828833940713

> <PUBCHEM_SHAPE_MULTIPOLES>
235.22
6.39
2.81
0.93
2.26
0.68
-0.13
-5.75
-0.52
0.46
0.26
-0.2
-0.06
0.94

> <PUBCHEM_SHAPE_SELFOVERLAP>
432.115

> <PUBCHEM_SHAPE_VOLUME>
148.3

> <PUBCHEM_COORDINATE_TYPE>
2
5
10

$$$$
