15225386
  -OEChem-11232108413D

 25 25  0     0  0  0  0  0  0999 V2000
   -0.3472   -0.6263   -0.2355 S   0  0  0  0  0  0  0  0  0  0  0  0
   -3.6929    0.9698   -0.5679 O   0  0  0  0  0  0  0  0  0  0  0  0
    4.7443   -0.6924   -0.3423 O   0  0  0  0  0  0  0  0  0  0  0  0
    3.8053    1.2220    0.5391 O   0  0  0  0  0  0  0  0  0  0  0  0
    1.1998    0.2531    0.1215 C   0  0  0  0  0  0  0  0  0  0  0  0
    2.4042   -0.6013   -0.2567 C   0  0  0  0  0  0  0  0  0  0  0  0
   -1.5056    0.6245    0.3649 C   0  0  0  0  0  0  0  0  0  0  0  0
   -2.9279    0.1729    0.1989 C   0  0  0  0  0  0  0  0  0  0  0  0
   -3.6026   -0.8981    0.6786 C   0  0  0  0  0  0  0  0  0  0  0  0
    3.7062    0.1098    0.0394 C   0  0  0  0  0  0  0  0  0  0  0  0
   -4.9159   -0.7663    0.1680 C   0  0  0  0  0  0  0  0  0  0  0  0
   -4.9197    0.3853   -0.5838 C   0  0  0  0  0  0  0  0  0  0  0  0
    6.0520   -0.1531   -0.1241 C   0  0  0  0  0  0  0  0  0  0  0  0
    1.2135    1.1934   -0.4402 H   0  0  0  0  0  0  0  0  0  0  0  0
    1.2330    0.4965    1.1891 H   0  0  0  0  0  0  0  0  0  0  0  0
    2.3987   -1.5381    0.3128 H   0  0  0  0  0  0  0  0  0  0  0  0
    2.3835   -0.8293   -1.3290 H   0  0  0  0  0  0  0  0  0  0  0  0
   -1.3413    1.5579   -0.1842 H   0  0  0  0  0  0  0  0  0  0  0  0
   -1.3167    0.8146    1.4267 H   0  0  0  0  0  0  0  0  0  0  0  0
   -3.2224   -1.6831    1.3162 H   0  0  0  0  0  0  0  0  0  0  0  0
   -5.7550   -1.4277    0.3285 H   0  0  0  0  0  0  0  0  0  0  0  0
   -5.6743    0.8983   -1.1620 H   0  0  0  0  0  0  0  0  0  0  0  0
    6.7846   -0.8875   -0.4694 H   0  0  0  0  0  0  0  0  0  0  0  0
    6.2133    0.0291    0.9427 H   0  0  0  0  0  0  0  0  0  0  0  0
    6.1819    0.7692   -0.6982 H   0  0  0  0  0  0  0  0  0  0  0  0
  1  5  1  0  0  0  0
  1  7  1  0  0  0  0
  2  8  1  0  0  0  0
  2 12  1  0  0  0  0
  3 10  1  0  0  0  0
  3 13  1  0  0  0  0
  4 10  2  0  0  0  0
  5  6  1  0  0  0  0
  5 14  1  0  0  0  0
  5 15  1  0  0  0  0
  6 10  1  0  0  0  0
  6 16  1  0  0  0  0
  6 17  1  0  0  0  0
  7  8  1  0  0  0  0
  7 18  1  0  0  0  0
  7 19  1  0  0  0  0
  8  9  2  0  0  0  0
  9 11  1  0  0  0  0
  9 20  1  0  0  0  0
 11 12  2  0  0  0  0
 11 21  1  0  0  0  0
 12 22  1  0  0  0  0
 13 23  1  0  0  0  0
 13 24  1  0  0  0  0
 13 25  1  0  0  0  0
M  END
> <PUBCHEM_COMPOUND_CID>
15225386

> <PUBCHEM_CONFORMER_RMSD>
0.6

> <PUBCHEM_CONFORMER_DIVERSEORDER>
1
119
131
135
17
10
147
32
94
51
133
102
59
37
167
34
22
13
112
7
180
48
9
127
61
165
108
115
5
14
160
126
33
53
54
109
85
2
62
11
16
77
52
149
99
176
18
65
155
12
117
174
38
79
173
29
143
67
69
90
106
105
36
39
170
158
97
75
80
35
68
19
55
110
72
181
31
182
41
25
92
140
6
78
175
83
21
82
60
120
86
113
150
44
161
148
84
64
101
153
73
95
76
172
15
177
23
129
156
162
63
49
179
104
66
40
28
168
30
89
125
8
103
166
169
47
46
118
154
142
42
98
152
57
88
163
45
27
138
144
171
114
71
122
151
56
24
96
3
157
164
128
141
26
111
93
145
4
91
87
58
178
139
130
121
107
136
123
74
100
20
134
146
70
81
43
159
50
116
124
132
137

> <PUBCHEM_MMFF94_PARTIAL_CHARGES>
16
1 -0.46
10 0.66
11 -0.15
12 -0.01
13 0.28
2 -0.28
20 0.15
21 0.15
22 0.15
3 -0.43
4 -0.57
5 0.23
6 0.06
7 0.41
8 -0.04
9 -0.15

> <PUBCHEM_EFFECTIVE_ROTOR_COUNT>
6

> <PUBCHEM_PHARMACOPHORE_FEATURES>
4
1 2 acceptor
1 4 acceptor
4 1 5 6 7 hydrophobe
5 2 8 9 11 12 rings

> <PUBCHEM_HEAVY_ATOM_COUNT>
13

> <PUBCHEM_ATOM_DEF_STEREO_COUNT>
0

> <PUBCHEM_ATOM_UDEF_STEREO_COUNT>
0

> <PUBCHEM_BOND_DEF_STEREO_COUNT>
0

> <PUBCHEM_BOND_UDEF_STEREO_COUNT>
0

> <PUBCHEM_ISOTOPIC_ATOM_COUNT>
0

> <PUBCHEM_COMPONENT_COUNT>
1

> <PUBCHEM_CACTVS_TAUTO_COUNT>
1

> <PUBCHEM_CONFORMER_ID>
00E8522A00000001

> <PUBCHEM_MMFF94_ENERGY>
12.6202

> <PUBCHEM_FEATURE_SELFOVERLAP>
20.297

> <PUBCHEM_SHAPE_FINGERPRINT>
10680689 15 18113623391413082241
11287383 113 18411982494222875314
12091667 2 17458348537017468090
12815109 37 12468356860304816390
14123238 8 15267342920482057438
1420 363 18272094902443777862
14251718 22 18186241744802409170
15242433 33 11530482233636434136
15242439 84 18407477760502605552
17834072 33 17968103061725903844
17834076 25 15646773387873893994
19489759 90 17821727230409113553
200 152 17775003470701352217
20279233 1 18410301302242158559
20645477 70 18200315416434649726
22485316 2 18040995133233441747
23402539 116 17385721400430797679
23557571 272 18261112924429012733
23559900 14 18334290993734934752
300161 21 13912322417046401224
42788 4 18260548926793279270
542803 24 15863791690382442134
57483677 66 18410571777834147314

> <PUBCHEM_SHAPE_MULTIPOLES>
253.78
14.06
1
0.74
9.07
0.03
0.01
-0.59
-0.82
-0.25
0.04
-0.26
0.01
0.65

> <PUBCHEM_SHAPE_SELFOVERLAP>
493.072

> <PUBCHEM_SHAPE_VOLUME>
156

> <PUBCHEM_COORDINATE_TYPE>
2
5
10

$$$$
