15273629
  -OEChem-11232108523D

 26 25  0     1  0  0  0  0  0999 V2000
   -0.4260    0.7639   -1.4369 O   0  0  0  0  0  0  0  0  0  0  0  0
   -0.1751   -0.8854    0.3160 C   0  0  1  0  0  0  0  0  0  0  0  0
   -1.2445   -1.8689   -0.1919 C   0  0  0  0  0  0  0  0  0  0  0  0
    1.2577   -1.3542    0.0028 C   0  0  0  0  0  0  0  0  0  0  0  0
   -0.4488    0.5209   -0.2303 C   0  0  0  0  0  0  0  0  0  0  0  0
   -0.7750    1.5907    0.8008 C   0  0  0  0  0  0  0  0  0  0  0  0
   -2.6700   -1.5532    0.2429 C   0  0  0  0  0  0  0  0  0  0  0  0
    2.2941   -0.4064    0.5406 C   0  0  0  0  0  0  0  0  0  0  0  0
   -1.0001    2.9556    0.1751 C   0  0  0  0  0  0  0  0  0  0  0  0
    3.1876    0.2369   -0.2191 C   0  0  0  0  0  0  0  0  0  0  0  0
   -0.2735   -0.8340    1.4095 H   0  0  0  0  0  0  0  0  0  0  0  0
   -1.2164   -1.9113   -1.2879 H   0  0  0  0  0  0  0  0  0  0  0  0
   -0.9964   -2.8761    0.1657 H   0  0  0  0  0  0  0  0  0  0  0  0
    1.4269   -2.3410    0.4503 H   0  0  0  0  0  0  0  0  0  0  0  0
    1.3765   -1.4734   -1.0816 H   0  0  0  0  0  0  0  0  0  0  0  0
   -1.6759    1.2826    1.3412 H   0  0  0  0  0  0  0  0  0  0  0  0
    0.0569    1.6493    1.5102 H   0  0  0  0  0  0  0  0  0  0  0  0
   -2.7429   -1.5043    1.3339 H   0  0  0  0  0  0  0  0  0  0  0  0
   -3.0104   -0.5985   -0.1693 H   0  0  0  0  0  0  0  0  0  0  0  0
   -3.3531   -2.3327   -0.1092 H   0  0  0  0  0  0  0  0  0  0  0  0
    2.3165   -0.2510    1.6161 H   0  0  0  0  0  0  0  0  0  0  0  0
   -0.1108    3.2896   -0.3696 H   0  0  0  0  0  0  0  0  0  0  0  0
   -1.2265    3.6965    0.9479 H   0  0  0  0  0  0  0  0  0  0  0  0
   -1.8368    2.9313   -0.5309 H   0  0  0  0  0  0  0  0  0  0  0  0
    3.9134    0.9042    0.2327 H   0  0  0  0  0  0  0  0  0  0  0  0
    3.2105    0.1129   -1.2960 H   0  0  0  0  0  0  0  0  0  0  0  0
  1  5  2  0  0  0  0
  2  3  1  0  0  0  0
  2  4  1  0  0  0  0
  2  5  1  0  0  0  0
  2 11  1  0  0  0  0
  3  7  1  0  0  0  0
  3 12  1  0  0  0  0
  3 13  1  0  0  0  0
  4  8  1  0  0  0  0
  4 14  1  0  0  0  0
  4 15  1  0  0  0  0
  5  6  1  0  0  0  0
  6  9  1  0  0  0  0
  6 16  1  0  0  0  0
  6 17  1  0  0  0  0
  7 18  1  0  0  0  0
  7 19  1  0  0  0  0
  7 20  1  0  0  0  0
  8 10  2  0  0  0  0
  8 21  1  0  0  0  0
  9 22  1  0  0  0  0
  9 23  1  0  0  0  0
  9 24  1  0  0  0  0
 10 25  1  0  0  0  0
 10 26  1  0  0  0  0
M  END
> <PUBCHEM_COMPOUND_CID>
15273629

> <PUBCHEM_CONFORMER_RMSD>
0.6

> <PUBCHEM_CONFORMER_DIVERSEORDER>
1
162
178
184
130
25
113
111
189
177
136
129
84
121
18
194
15
158
179
141
17
175
183
180
169
122
52
174
155
137
59
191
67
159
134
54
118
120
161
77
173
28
106
181
34
166
50
188
176
148
94
85
90
133
154
156
186
185
96
192
80
119
163
92
170
22
149
66
76
32
131
102
160
86
190
132
164
125
195
57
47
6
108
123
140
172
171
5
23
187
145
88
168
115
104
83
112
51
38
82
68
167
70
193
89
60
12
147
110
103
14
146
142
105
98
91
81
55
128
58
63
99
79
157
135
26
72
3
36
71
48
43
24
30
182
124
56
127
78
165
46
69
95
144
93
97
116
13
126
138
16
10
35
101
152
64
139
109
40
31
75
11
114
87
74
41
9
117
100
53
143
65
153
107
45
61
29
21
33
151
37
49
73
39
2
42
44
4
62
8
27
150
19
7
20

> <PUBCHEM_MMFF94_PARTIAL_CHARGES>
10
1 -0.57
10 -0.3
2 0.06
21 0.15
25 0.15
26 0.15
4 0.14
5 0.45
6 0.06
8 -0.29

> <PUBCHEM_EFFECTIVE_ROTOR_COUNT>
5

> <PUBCHEM_PHARMACOPHORE_FEATURES>
5
1 1 acceptor
1 10 hydrophobe
1 7 hydrophobe
1 9 hydrophobe
4 2 3 4 8 hydrophobe

> <PUBCHEM_HEAVY_ATOM_COUNT>
10

> <PUBCHEM_ATOM_DEF_STEREO_COUNT>
0

> <PUBCHEM_ATOM_UDEF_STEREO_COUNT>
1

> <PUBCHEM_BOND_DEF_STEREO_COUNT>
0

> <PUBCHEM_BOND_UDEF_STEREO_COUNT>
0

> <PUBCHEM_ISOTOPIC_ATOM_COUNT>
0

> <PUBCHEM_COMPONENT_COUNT>
1

> <PUBCHEM_CACTVS_TAUTO_COUNT>
3

> <PUBCHEM_CONFORMER_ID>
00E90E9D00000001

> <PUBCHEM_MMFF94_ENERGY>
6.6984

> <PUBCHEM_FEATURE_SELFOVERLAP>
25.375

> <PUBCHEM_SHAPE_FINGERPRINT>
100427 49 18124585642200270392
12423570 1 11148114983133710495
16945 1 18411138000262101658
19837323 101 18058438816667764882
21040471 1 18051972515802083714
23526114 1 17763461012439437711
23595355 12 17475522672562806126
3250762 1 17983591705564174670
5084963 1 18040708148283188682
81228 2 18411424994324516003

> <PUBCHEM_SHAPE_MULTIPOLES>
199.93
3.45
2.74
0.89
2.31
1.94
-0.15
-1.23
0.19
-1.93
0.21
-0.05
0.18
-0.1

> <PUBCHEM_SHAPE_SELFOVERLAP>
366.36

> <PUBCHEM_SHAPE_VOLUME>
127.2

> <PUBCHEM_COORDINATE_TYPE>
2
5
10

$$$$
