15336
  -OEChem-11232108453D

 29 29  0     1  0  0  0  0  0999 V2000
    2.0768    1.0930   -0.2018 O   0  0  0  0  0  0  0  0  0  0  0  0
    1.2561   -1.0578    0.2673 O   0  0  0  0  0  0  0  0  0  0  0  0
    1.0195    0.3475    0.4169 C   0  0  2  0  0  0  0  0  0  0  0  0
   -0.3015    0.7212   -0.2291 C   0  0  0  0  0  0  0  0  0  0  0  0
    3.0912    0.1294   -0.4972 C   0  0  2  0  0  0  0  0  0  0  0  0
   -1.4681   -0.0398    0.4004 C   0  0  0  0  0  0  0  0  0  0  0  0
    2.3071   -1.1472   -0.6945 C   0  0  0  0  0  0  0  0  0  0  0  0
   -2.8013    0.3647   -0.2307 C   0  0  0  0  0  0  0  0  0  0  0  0
   -3.9644   -0.4206    0.3752 C   0  0  0  0  0  0  0  0  0  0  0  0
    4.0721    0.0552    0.6665 C   0  0  0  0  0  0  0  0  0  0  0  0
   -5.2874   -0.0454   -0.2729 C   0  0  0  0  0  0  0  0  0  0  0  0
    1.0084    0.5826    1.4870 H   0  0  0  0  0  0  0  0  0  0  0  0
   -0.2627    0.4995   -1.3034 H   0  0  0  0  0  0  0  0  0  0  0  0
   -0.4588    1.8033   -0.1442 H   0  0  0  0  0  0  0  0  0  0  0  0
    3.6240    0.4233   -1.4068 H   0  0  0  0  0  0  0  0  0  0  0  0
   -1.3236   -1.1195    0.2744 H   0  0  0  0  0  0  0  0  0  0  0  0
   -1.4990    0.1591    1.4786 H   0  0  0  0  0  0  0  0  0  0  0  0
    1.8466   -1.1788   -1.6884 H   0  0  0  0  0  0  0  0  0  0  0  0
    2.8908   -2.0593   -0.5443 H   0  0  0  0  0  0  0  0  0  0  0  0
   -2.9669    1.4392   -0.0861 H   0  0  0  0  0  0  0  0  0  0  0  0
   -2.7634    0.1864   -1.3124 H   0  0  0  0  0  0  0  0  0  0  0  0
   -3.7954   -1.4961    0.2470 H   0  0  0  0  0  0  0  0  0  0  0  0
   -4.0225   -0.2275    1.4527 H   0  0  0  0  0  0  0  0  0  0  0  0
    3.5713   -0.2017    1.6062 H   0  0  0  0  0  0  0  0  0  0  0  0
    4.8530   -0.6868    0.4744 H   0  0  0  0  0  0  0  0  0  0  0  0
    4.5466    1.0300    0.8220 H   0  0  0  0  0  0  0  0  0  0  0  0
   -5.5027    1.0193   -0.1369 H   0  0  0  0  0  0  0  0  0  0  0  0
   -6.1052   -0.6175    0.1762 H   0  0  0  0  0  0  0  0  0  0  0  0
   -5.2731   -0.2589   -1.3465 H   0  0  0  0  0  0  0  0  0  0  0  0
  1  3  1  0  0  0  0
  1  5  1  0  0  0  0
  2  3  1  0  0  0  0
  2  7  1  0  0  0  0
  3  4  1  0  0  0  0
  3 12  1  0  0  0  0
  4  6  1  0  0  0  0
  4 13  1  0  0  0  0
  4 14  1  0  0  0  0
  5  7  1  0  0  0  0
  5 10  1  0  0  0  0
  5 15  1  0  0  0  0
  6  8  1  0  0  0  0
  6 16  1  0  0  0  0
  6 17  1  0  0  0  0
  7 18  1  0  0  0  0
  7 19  1  0  0  0  0
  8  9  1  0  0  0  0
  8 20  1  0  0  0  0
  8 21  1  0  0  0  0
  9 11  1  0  0  0  0
  9 22  1  0  0  0  0
  9 23  1  0  0  0  0
 10 24  1  0  0  0  0
 10 25  1  0  0  0  0
 10 26  1  0  0  0  0
 11 27  1  0  0  0  0
 11 28  1  0  0  0  0
 11 29  1  0  0  0  0
M  END
> <PUBCHEM_COMPOUND_CID>
15336

> <PUBCHEM_CONFORMER_RMSD>
0.6

> <PUBCHEM_CONFORMER_DIVERSEORDER>
19
99
16
91
67
113
101
56
103
87
112
45
23
77
106
41
96
100
4
18
104
59
109
17
102
110
76
52
80
97
36
105
1
89
92
2
54
107
7
48
75
108
90
111
93
15
32
84
3
82
6
81
37
29
70
38
88
55
60
85
50
98
31
42
74
26
5
94
49
8
73
33
79
35
86
43
30
83
63
62
57
14
10
64
68
25
78
11
66
95
61
20
47
53
39
58
51
13
40
24
22
12
69
72
9
71
46
28
65
34
27
21
44

> <PUBCHEM_MMFF94_PARTIAL_CHARGES>
5
1 -0.56
2 -0.56
3 0.56
5 0.28
7 0.28

> <PUBCHEM_EFFECTIVE_ROTOR_COUNT>
5

> <PUBCHEM_PHARMACOPHORE_FEATURES>
5
1 1 acceptor
1 11 hydrophobe
1 2 acceptor
4 4 6 8 9 hydrophobe
5 1 2 3 5 7 rings

> <PUBCHEM_HEAVY_ATOM_COUNT>
11

> <PUBCHEM_ATOM_DEF_STEREO_COUNT>
0

> <PUBCHEM_ATOM_UDEF_STEREO_COUNT>
2

> <PUBCHEM_BOND_DEF_STEREO_COUNT>
0

> <PUBCHEM_BOND_UDEF_STEREO_COUNT>
0

> <PUBCHEM_ISOTOPIC_ATOM_COUNT>
0

> <PUBCHEM_COMPONENT_COUNT>
1

> <PUBCHEM_CACTVS_TAUTO_COUNT>
1

> <PUBCHEM_CONFORMER_ID>
00003BE800000013

> <PUBCHEM_MMFF94_ENERGY>
11.8067

> <PUBCHEM_FEATURE_SELFOVERLAP>
25.412

> <PUBCHEM_SHAPE_FINGERPRINT>
11062470 55 15791451539109858901
12932764 1 16343409623217148593
14123238 8 13254795746390410217
14251717 144 18412827984215459735
14252887 29 17846789493830715894
15477762 27 18341617001256333158
17834072 33 16773506780760735285
17834076 25 15985385603345794688
18342897 14 10592045760573110531
190213 19 18202286900843526977
20201158 50 18334018284886675915
20279233 1 18113905961495891491
20645477 70 18340768135557416255
20724930 37 17676202477142919194
20767249 13 18411696591314295395
22485316 2 17988922271527407407
23402539 116 16950555601799842095
23402655 69 18410855443428464189
23557571 272 16877936101569831957
4047638 21 11891337555772657924
42 15 12103851150726313909
581208 293 18413109463344621902

> <PUBCHEM_SHAPE_MULTIPOLES>
214.64
9.27
0.98
0.78
8.94
0.11
0.01
0.64
0.06
-0.49
-0.08
-0.21
0.03
0.2

> <PUBCHEM_SHAPE_SELFOVERLAP>
407.212

> <PUBCHEM_SHAPE_VOLUME>
133.8

> <PUBCHEM_COORDINATE_TYPE>
2
5
10

$$$$
