15405344
  -OEChem-11232108473D

 38 39  0     0  0  0  0  0  0999 V2000
   -1.8462    1.7423   -1.2595 O   0  0  0  0  0  0  0  0  0  0  0  0
    2.2108   -0.1930    0.3974 C   0  0  0  0  0  0  0  0  0  0  0  0
    2.8514   -1.4328    1.0418 C   0  0  0  0  0  0  0  0  0  0  0  0
    2.8471   -0.2268   -1.0062 C   0  0  0  0  0  0  0  0  0  0  0  0
    2.5706    1.0905    1.1675 C   0  0  0  0  0  0  0  0  0  0  0  0
    0.6651   -0.3302    0.3338 C   0  0  0  0  0  0  0  0  0  0  0  0
    2.8662   -2.4835   -0.0625 C   0  0  0  0  0  0  0  0  0  0  0  0
    2.9391   -1.7072   -1.3758 C   0  0  0  0  0  0  0  0  0  0  0  0
    1.9704    2.3463    0.5258 C   0  0  0  0  0  0  0  0  0  0  0  0
   -0.0282    0.9572   -0.0076 C   0  0  0  0  0  0  0  0  0  0  0  0
    0.5550    2.1618    0.0641 C   0  0  0  0  0  0  0  0  0  0  0  0
   -1.4188    0.9013   -0.4653 C   0  0  0  0  0  0  0  0  0  0  0  0
   -2.2754   -0.2300    0.0838 C   0  0  0  0  0  0  0  0  0  0  0  0
   -3.7155   -0.1762   -0.4249 C   0  0  0  0  0  0  0  0  0  0  0  0
   -4.5354   -1.2979    0.1394 C   0  0  0  0  0  0  0  0  0  0  0  0
   -5.6561   -1.1218    0.8483 C   0  0  0  0  0  0  0  0  0  0  0  0
    2.3150   -1.7828    1.9297 H   0  0  0  0  0  0  0  0  0  0  0  0
    3.8839   -1.2176    1.3460 H   0  0  0  0  0  0  0  0  0  0  0  0
    3.8603    0.1942   -0.9763 H   0  0  0  0  0  0  0  0  0  0  0  0
    2.2837    0.3368   -1.7568 H   0  0  0  0  0  0  0  0  0  0  0  0
    3.6584    1.2121    1.2421 H   0  0  0  0  0  0  0  0  0  0  0  0
    2.2010    1.0054    2.1987 H   0  0  0  0  0  0  0  0  0  0  0  0
    0.2916   -0.6715    1.3081 H   0  0  0  0  0  0  0  0  0  0  0  0
    0.3978   -1.0988   -0.4004 H   0  0  0  0  0  0  0  0  0  0  0  0
    1.9475   -3.0810   -0.0333 H   0  0  0  0  0  0  0  0  0  0  0  0
    3.7079   -3.1741    0.0510 H   0  0  0  0  0  0  0  0  0  0  0  0
    3.8678   -1.9173   -1.9167 H   0  0  0  0  0  0  0  0  0  0  0  0
    2.1093   -1.9968   -2.0304 H   0  0  0  0  0  0  0  0  0  0  0  0
    2.5783    2.6513   -0.3343 H   0  0  0  0  0  0  0  0  0  0  0  0
    2.0105    3.1678    1.2503 H   0  0  0  0  0  0  0  0  0  0  0  0
    0.0194    3.0674   -0.2078 H   0  0  0  0  0  0  0  0  0  0  0  0
   -1.8353   -1.1876   -0.2153 H   0  0  0  0  0  0  0  0  0  0  0  0
   -2.2670   -0.1643    1.1786 H   0  0  0  0  0  0  0  0  0  0  0  0
   -4.1602    0.7958   -0.1774 H   0  0  0  0  0  0  0  0  0  0  0  0
   -3.7244   -0.2534   -1.5191 H   0  0  0  0  0  0  0  0  0  0  0  0
   -4.2000   -2.3126   -0.0595 H   0  0  0  0  0  0  0  0  0  0  0  0
   -6.2094   -1.9763    1.2221 H   0  0  0  0  0  0  0  0  0  0  0  0
   -6.0392   -0.1314    1.0677 H   0  0  0  0  0  0  0  0  0  0  0  0
  1 12  2  0  0  0  0
  2  3  1  0  0  0  0
  2  4  1  0  0  0  0
  2  5  1  0  0  0  0
  2  6  1  0  0  0  0
  3  7  1  0  0  0  0
  3 17  1  0  0  0  0
  3 18  1  0  0  0  0
  4  8  1  0  0  0  0
  4 19  1  0  0  0  0
  4 20  1  0  0  0  0
  5  9  1  0  0  0  0
  5 21  1  0  0  0  0
  5 22  1  0  0  0  0
  6 10  1  0  0  0  0
  6 23  1  0  0  0  0
  6 24  1  0  0  0  0
  7  8  1  0  0  0  0
  7 25  1  0  0  0  0
  7 26  1  0  0  0  0
  8 27  1  0  0  0  0
  8 28  1  0  0  0  0
  9 11  1  0  0  0  0
  9 29  1  0  0  0  0
  9 30  1  0  0  0  0
 10 11  2  0  0  0  0
 10 12  1  0  0  0  0
 11 31  1  0  0  0  0
 12 13  1  0  0  0  0
 13 14  1  0  0  0  0
 13 32  1  0  0  0  0
 13 33  1  0  0  0  0
 14 15  1  0  0  0  0
 14 34  1  0  0  0  0
 14 35  1  0  0  0  0
 15 16  2  0  0  0  0
 15 36  1  0  0  0  0
 16 37  1  0  0  0  0
 16 38  1  0  0  0  0
M  END
> <PUBCHEM_COMPOUND_CID>
15405344

> <PUBCHEM_CONFORMER_RMSD>
0.6

> <PUBCHEM_CONFORMER_DIVERSEORDER>
1
66
181
103
91
7
170
108
165
192
128
90
141
100
191
193
64
106
58
16
155
10
104
198
63
163
186
190
21
37
71
174
12
89
178
22
98
40
176
15
194
160
187
95
69
97
113
50
195
83
6
96
111
68
172
151
125
2
99
164
51
78
115
33
76
46
110
126
175
36
81
109
101
188
38
105
17
152
173
28
142
148
185
82
25
26
139
72
116
47
157
74
143
27
169
8
18
189
171
9
5
140
134
14
133
197
130
31
54
112
73
86
159
60
34
32
85
19
56
184
180
92
168
162
24
67
59
117
93
53
158
87
23
114
177
132
88
136
61
75
84
11
13
196
79
20
45
146
49
42
123
55
166
138
167
70
77
154
182
131
122
48
41
44
144
39
124
57
145
3
102
52
30
129
135
118
120
179
153
43
121
65
4
35
119
149
107
62
183
161
150
29
80
127
137
156
94
147

> <PUBCHEM_MMFF94_PARTIAL_CHARGES>
14
1 -0.57
10 -0.12
11 -0.29
12 0.49
13 0.06
14 0.14
15 -0.29
16 -0.3
31 0.15
36 0.15
37 0.15
38 0.15
6 0.14
9 0.14

> <PUBCHEM_EFFECTIVE_ROTOR_COUNT>
5.4

> <PUBCHEM_PHARMACOPHORE_FEATURES>
4
1 1 acceptor
1 16 hydrophobe
5 2 3 4 7 8 rings
6 2 5 6 9 10 11 rings

> <PUBCHEM_HEAVY_ATOM_COUNT>
16

> <PUBCHEM_ATOM_DEF_STEREO_COUNT>
0

> <PUBCHEM_ATOM_UDEF_STEREO_COUNT>
0

> <PUBCHEM_BOND_DEF_STEREO_COUNT>
0

> <PUBCHEM_BOND_UDEF_STEREO_COUNT>
0

> <PUBCHEM_ISOTOPIC_ATOM_COUNT>
0

> <PUBCHEM_COMPONENT_COUNT>
1

> <PUBCHEM_CACTVS_TAUTO_COUNT>
5

> <PUBCHEM_CONFORMER_ID>
00EB112000000001

> <PUBCHEM_MMFF94_ENERGY>
27.7931

> <PUBCHEM_FEATURE_SELFOVERLAP>
20.304

> <PUBCHEM_SHAPE_FINGERPRINT>
10064457 181 15841260523828777878
11067466 332 18335701680497092124
11140007 195 16486711159581898615
11543360 7 13262397791428475763
12553582 1 18343014484651278231
12616999 72 17968103061504461558
13296908 3 18338789031495688261
13464513 79 18272371988269990694
13533116 47 18201162165458722163
14115302 16 17828198792610083588
14251731 5 18339082566614309854
14251758 9 18337962204011867345
14251764 30 16987178040935885142
14252887 29 18336545018716121817
14366163 111 14779266423705558151
14863182 85 18338518650830830020
14957384 54 10375284714090365606
15422964 175 18057603157724050134
15635459 17 18334860553870046851
15664445 248 17896897623254111245
16945 1 17560216065139475712
17859628 70 18343025509800814575
20281475 54 18261115140979958701
20397935 70 18270408312506834755
20626108 58 17241876593784834418
20645477 70 18340189882824988279
20871998 22 18409445890843647253
20871999 31 18189342277034401815
21521721 280 18128542750933177392
21713013 43 17969505917903260183
221490 88 18408600336015070707
22224240 67 18056466490513629128
23466295 7 16046224605305185182
23557571 272 17023169535615256524
2748010 2 18267564850160564036
31174 14 18342734147877719849
33824 294 18339076115604586186
3421961 26 18413670205637477915
43658 37 7853564691416756335
4463277 69 18412821404726333335
5352402 22 18411704318150507971
5902787 121 18264758875074492114
6049 1 18335974286192653061
621550 34 18265323079011398181
7364860 26 18272087253307639696
94968 8 18408890632986774958
9709674 26 18263361546494354323

> <PUBCHEM_SHAPE_MULTIPOLES>
323.4
8.58
2.5
1.13
14.54
0.27
0.1
-5.48
-1.22
-1.96
0.03
-0.5
-0.09
1.1

> <PUBCHEM_SHAPE_SELFOVERLAP>
660.414

> <PUBCHEM_SHAPE_VOLUME>
186.9

> <PUBCHEM_COORDINATE_TYPE>
2
5
10

$$$$
