15448
  -OEChem-11232109263D

 36 35  0     1  0  0  0  0  0999 V2000
    4.8048   -1.3313    0.4297 O   0  0  0  0  0  0  0  0  0  0  0  0
   -0.4337   -0.2682   -0.1926 C   0  0  0  0  0  0  0  0  0  0  0  0
    0.8344    0.5412    0.0995 C   0  0  0  0  0  0  0  0  0  0  0  0
   -1.7549    0.3968    0.2062 C   0  0  0  0  0  0  0  0  0  0  0  0
    2.1238   -0.2104   -0.2392 C   0  0  0  0  0  0  0  0  0  0  0  0
   -2.9888   -0.4310   -0.1588 C   0  0  0  0  0  0  0  0  0  0  0  0
    3.3924    0.6043    0.0457 C   0  0  0  0  0  0  0  0  0  0  0  0
   -4.2790    0.3187    0.1804 C   0  0  0  0  0  0  0  0  0  0  0  0
    4.6990   -0.1161   -0.3061 C   0  0  1  0  0  0  0  0  0  0  0  0
   -5.5129   -0.4907   -0.2177 C   0  0  0  0  0  0  0  0  0  0  0  0
    5.9125    0.7510    0.0046 C   0  0  0  0  0  0  0  0  0  0  0  0
   -6.7975    0.2357    0.1483 C   0  0  0  0  0  0  0  0  0  0  0  0
   -0.3626   -1.2336    0.3245 H   0  0  0  0  0  0  0  0  0  0  0  0
   -0.4617   -0.4947   -1.2661 H   0  0  0  0  0  0  0  0  0  0  0  0
    0.8467    0.8139    1.1620 H   0  0  0  0  0  0  0  0  0  0  0  0
    0.7985    1.4790   -0.4679 H   0  0  0  0  0  0  0  0  0  0  0  0
   -1.8169    1.3753   -0.2863 H   0  0  0  0  0  0  0  0  0  0  0  0
   -1.7495    0.5867    1.2865 H   0  0  0  0  0  0  0  0  0  0  0  0
    2.1533   -1.1445    0.3346 H   0  0  0  0  0  0  0  0  0  0  0  0
    2.1095   -0.4900   -1.2998 H   0  0  0  0  0  0  0  0  0  0  0  0
   -2.9701   -0.6600   -1.2312 H   0  0  0  0  0  0  0  0  0  0  0  0
   -2.9611   -1.3872    0.3771 H   0  0  0  0  0  0  0  0  0  0  0  0
    3.3420    1.5503   -0.5074 H   0  0  0  0  0  0  0  0  0  0  0  0
    3.3973    0.8568    1.1141 H   0  0  0  0  0  0  0  0  0  0  0  0
   -4.3072    0.5299    1.2563 H   0  0  0  0  0  0  0  0  0  0  0  0
   -4.2927    1.2847   -0.3390 H   0  0  0  0  0  0  0  0  0  0  0  0
    4.7027   -0.3762   -1.3701 H   0  0  0  0  0  0  0  0  0  0  0  0
   -5.5012   -0.6811   -1.2972 H   0  0  0  0  0  0  0  0  0  0  0  0
   -5.4969   -1.4653    0.2840 H   0  0  0  0  0  0  0  0  0  0  0  0
    6.8360    0.2139   -0.2369 H   0  0  0  0  0  0  0  0  0  0  0  0
    5.8914    1.6838   -0.5669 H   0  0  0  0  0  0  0  0  0  0  0  0
    5.9603    0.9942    1.0718 H   0  0  0  0  0  0  0  0  0  0  0  0
   -6.8554    0.4111    1.2273 H   0  0  0  0  0  0  0  0  0  0  0  0
   -6.8601    1.2026   -0.3611 H   0  0  0  0  0  0  0  0  0  0  0  0
   -7.6670   -0.3603   -0.1460 H   0  0  0  0  0  0  0  0  0  0  0  0
    4.7853   -1.1096    1.3764 H   0  0  0  0  0  0  0  0  0  0  0  0
  1  9  1  0  0  0  0
  1 36  1  0  0  0  0
  2  3  1  0  0  0  0
  2  4  1  0  0  0  0
  2 13  1  0  0  0  0
  2 14  1  0  0  0  0
  3  5  1  0  0  0  0
  3 15  1  0  0  0  0
  3 16  1  0  0  0  0
  4  6  1  0  0  0  0
  4 17  1  0  0  0  0
  4 18  1  0  0  0  0
  5  7  1  0  0  0  0
  5 19  1  0  0  0  0
  5 20  1  0  0  0  0
  6  8  1  0  0  0  0
  6 21  1  0  0  0  0
  6 22  1  0  0  0  0
  7  9  1  0  0  0  0
  7 23  1  0  0  0  0
  7 24  1  0  0  0  0
  8 10  1  0  0  0  0
  8 25  1  0  0  0  0
  8 26  1  0  0  0  0
  9 11  1  0  0  0  0
  9 27  1  0  0  0  0
 10 12  1  0  0  0  0
 10 28  1  0  0  0  0
 10 29  1  0  0  0  0
 11 30  1  0  0  0  0
 11 31  1  0  0  0  0
 11 32  1  0  0  0  0
 12 33  1  0  0  0  0
 12 34  1  0  0  0  0
 12 35  1  0  0  0  0
M  END
> <PUBCHEM_COMPOUND_CID>
15448

> <PUBCHEM_CONFORMER_RMSD>
0.8

> <PUBCHEM_CONFORMER_DIVERSEORDER>
1
145
9
283
277
113
266
38
34
122
161
265
12
279
75
185
225
86
291
253
73
106
93
44
78
23
234
246
101
204
49
238
46
218
71
260
54
35
155
85
114
276
247
98
177
125
48
6
29
10
182
233
258
30
59
288
207
153
55
248
250
112
138
221
212
56
64
105
72
8
249
224
215
109
172
181
242
160
118
132
227
286
5
231
284
40
261
147
66
162
237
142
22
285
158
116
151
186
69
213
184
190
263
39
289
27
157
141
19
135
36
271
7
28
53
243
111
175
99
17
143
245
255
169
52
119
108
257
95
149
264
20
80
210
18
230
82
16
163
130
15
205
192
21
128
76
13
150
83
280
152
14
33
31
193
194
179
287
96
81
275
126
282
220
121
90
269
3
65
57
41
100
200
89
170
216
11
50
187
290
4
32
267
174
178
102
195
167
88
133
232
251
197
123
183
146
203
254
206
2
84
97
196
127
244
164
67
104
129
94
144
79
87
208
124
103
70
240
226
92
137
209
107
148
222
110
61
268
140
45
156
273
24
60
270
239
115
47
198
217
166
159
259
214
51
199
42
154
202
171
136
63
62
272
26
223
139
131
176
236
173
74
262
43
68
180
117
165
252
189
219
37
91
201
120
191
278
168
25
188
256
134
58
241
77
281
274
211
228
235
229

> <PUBCHEM_MMFF94_PARTIAL_CHARGES>
3
1 -0.68
36 0.4
9 0.28

> <PUBCHEM_EFFECTIVE_ROTOR_COUNT>
8

> <PUBCHEM_PHARMACOPHORE_FEATURES>
3
1 1 acceptor
1 1 donor
1 12 hydrophobe

> <PUBCHEM_HEAVY_ATOM_COUNT>
12

> <PUBCHEM_ATOM_DEF_STEREO_COUNT>
0

> <PUBCHEM_ATOM_UDEF_STEREO_COUNT>
1

> <PUBCHEM_BOND_DEF_STEREO_COUNT>
0

> <PUBCHEM_BOND_UDEF_STEREO_COUNT>
0

> <PUBCHEM_ISOTOPIC_ATOM_COUNT>
0

> <PUBCHEM_COMPONENT_COUNT>
1

> <PUBCHEM_CACTVS_TAUTO_COUNT>
1

> <PUBCHEM_CONFORMER_ID>
00003C5800000001

> <PUBCHEM_MMFF94_ENERGY>
0.7794

> <PUBCHEM_FEATURE_SELFOVERLAP>
15.223

> <PUBCHEM_SHAPE_FINGERPRINT>
12091667 2 18410012148612606125
12815109 37 18343584048938354173
13533116 47 18341328903778169066
14123238 8 17917994979294630284
1420 363 16805326587217983105
14251718 22 18408322198554996683
14251764 46 18410855464423135588
17834072 33 18343299283905918551
17834076 25 18260829306526923149
187816 3 16370725929021534929
20281389 69 18409730643133904769
20645477 70 18261391092940424402
20767249 13 17917993875709561781
20767249 213 17918275367876795085
23218964 4 18410572877640713013
23402539 116 17846493743158128005
23521765 1 18341895199178356013
23536379 177 18408040697850771361
42788 4 18412545413879533797
4463277 17 18413671314039856865
57483677 66 18335417980469144995
8209 1 18272933829942287093

> <PUBCHEM_SHAPE_MULTIPOLES>
241.09
17.44
0.89
0.65
7.28
0.09
-0.01
-0.23
0.35
-0.64
0.06
-0.04
0.02
-0.29

> <PUBCHEM_SHAPE_SELFOVERLAP>
426.786

> <PUBCHEM_SHAPE_VOLUME>
158

> <PUBCHEM_COORDINATE_TYPE>
2
5
10

$$$$
