1549040
  -OEChem-11232109073D

 23 23  0     0  0  0  0  0  0999 V2000
   -3.0774   -0.1132    0.3186 O   0  0  0  0  0  0  0  0  0  0  0  0
    1.0078   -0.4409   -0.3396 C   0  0  0  0  0  0  0  0  0  0  0  0
    0.2957   -1.5226    0.1787 C   0  0  0  0  0  0  0  0  0  0  0  0
    0.3469    0.7509   -0.6370 C   0  0  0  0  0  0  0  0  0  0  0  0
   -1.7380   -0.2207    0.1018 C   0  0  0  0  0  0  0  0  0  0  0  0
   -1.0772   -1.4125    0.3994 C   0  0  0  0  0  0  0  0  0  0  0  0
   -1.0260    0.8610   -0.4162 C   0  0  0  0  0  0  0  0  0  0  0  0
    2.4392   -0.5555   -0.5702 C   0  0  0  0  0  0  0  0  0  0  0  0
    3.3977    0.2098   -0.0002 C   0  0  0  0  0  0  0  0  0  0  0  0
    3.1211    1.3101    0.9722 C   0  0  0  0  0  0  0  0  0  0  0  0
   -3.6899    1.1335   -0.0076 C   0  0  0  0  0  0  0  0  0  0  0  0
    0.7966   -2.4580    0.4161 H   0  0  0  0  0  0  0  0  0  0  0  0
    0.8817    1.6028   -1.0507 H   0  0  0  0  0  0  0  0  0  0  0  0
   -1.6265   -2.2583    0.8037 H   0  0  0  0  0  0  0  0  0  0  0  0
   -1.4766    1.8142   -0.6709 H   0  0  0  0  0  0  0  0  0  0  0  0
    2.7451   -1.3514   -1.2451 H   0  0  0  0  0  0  0  0  0  0  0  0
    4.4364    0.0223   -0.2585 H   0  0  0  0  0  0  0  0  0  0  0  0
    3.8429    1.2507    1.7939 H   0  0  0  0  0  0  0  0  0  0  0  0
    3.2474    2.2817    0.4851 H   0  0  0  0  0  0  0  0  0  0  0  0
    2.1279    1.2669    1.4257 H   0  0  0  0  0  0  0  0  0  0  0  0
   -3.6167    1.3497   -1.0789 H   0  0  0  0  0  0  0  0  0  0  0  0
   -3.2957    1.9489    0.6083 H   0  0  0  0  0  0  0  0  0  0  0  0
   -4.7553    1.0416    0.2276 H   0  0  0  0  0  0  0  0  0  0  0  0
  1  5  1  0  0  0  0
  1 11  1  0  0  0  0
  2  3  2  0  0  0  0
  2  4  1  0  0  0  0
  2  8  1  0  0  0  0
  3  6  1  0  0  0  0
  3 12  1  0  0  0  0
  4  7  2  0  0  0  0
  4 13  1  0  0  0  0
  5  6  2  0  0  0  0
  5  7  1  0  0  0  0
  6 14  1  0  0  0  0
  7 15  1  0  0  0  0
  8  9  2  0  0  0  0
  8 16  1  0  0  0  0
  9 10  1  0  0  0  0
  9 17  1  0  0  0  0
 10 18  1  0  0  0  0
 10 19  1  0  0  0  0
 10 20  1  0  0  0  0
 11 21  1  0  0  0  0
 11 22  1  0  0  0  0
 11 23  1  0  0  0  0
M  END
> <PUBCHEM_COMPOUND_CID>
1549040

> <PUBCHEM_CONFORMER_RMSD>
0.4

> <PUBCHEM_CONFORMER_DIVERSEORDER>
3
1
2
4

> <PUBCHEM_MMFF94_PARTIAL_CHARGES>
17
1 -0.36
10 0.14
11 0.28
12 0.15
13 0.15
14 0.15
15 0.15
16 0.15
17 0.15
2 0.03
3 -0.15
4 -0.15
5 0.08
6 -0.15
7 -0.15
8 -0.18
9 -0.29

> <PUBCHEM_EFFECTIVE_ROTOR_COUNT>
2

> <PUBCHEM_PHARMACOPHORE_FEATURES>
3
1 1 acceptor
1 10 hydrophobe
6 2 3 4 5 6 7 rings

> <PUBCHEM_HEAVY_ATOM_COUNT>
11

> <PUBCHEM_ATOM_DEF_STEREO_COUNT>
0

> <PUBCHEM_ATOM_UDEF_STEREO_COUNT>
0

> <PUBCHEM_BOND_DEF_STEREO_COUNT>
1

> <PUBCHEM_BOND_UDEF_STEREO_COUNT>
0

> <PUBCHEM_ISOTOPIC_ATOM_COUNT>
0

> <PUBCHEM_COMPONENT_COUNT>
1

> <PUBCHEM_CACTVS_TAUTO_COUNT>
1

> <PUBCHEM_CONFORMER_ID>
0017A2F000000003

> <PUBCHEM_MMFF94_ENERGY>
37.3508

> <PUBCHEM_FEATURE_SELFOVERLAP>
15.223

> <PUBCHEM_SHAPE_FINGERPRINT>
10857977 72 18114465646910053818
11062470 55 18272371953688478797
11543360 7 16702008795123191837
12119455 92 17917704691393214102
14325111 11 18409732854524616759
15775835 57 18333730217419840218
16945 1 17894630361462564439
17846911 113 18409160008971956672
18186145 218 18130796624371638169
19026448 5 16630528397439723255
20528008 55 18412542123892393524
20645464 45 18341611542432118494
20871998 184 18197507422287109231
21293036 1 11959724975775909714
23235685 24 18334012778675136479
23402539 116 18342165657358146484
23402655 69 18191573170044887125
2748010 2 18262814998551758799
369184 2 18342172293351786726
53812653 166 18409729538746625728
6333449 129 18341046414650885263
7364860 26 18195243308965729450

> <PUBCHEM_SHAPE_MULTIPOLES>
220.51
5.65
1.47
0.82
0.55
0.18
0.03
-2.29
0.79
0.07
0.19
-0.32
-0.1
0.53

> <PUBCHEM_SHAPE_SELFOVERLAP>
450.181

> <PUBCHEM_SHAPE_VOLUME>
129

> <PUBCHEM_COORDINATE_TYPE>
2
5
10

$$$$
