1550260
  -OEChem-11232108433D

 32 31  0     1  0  0  0  0  0999 V2000
    3.8330   -1.2688   -0.6321 O   0  0  0  0  0  0  0  0  0  0  0  0
   -3.9897   -1.9076   -0.3186 O   0  0  0  0  0  0  0  0  0  0  0  0
    0.5229    0.4165    0.1973 C   0  0  0  0  0  0  0  0  0  0  0  0
   -0.9016   -0.0126   -0.1757 C   0  0  0  0  0  0  0  0  0  0  0  0
    1.5580   -0.5483   -0.3910 C   0  0  0  0  0  0  0  0  0  0  0  0
   -1.9925    0.9585    0.3243 C   0  0  2  0  0  0  0  0  0  0  0  0
    3.0259   -0.2533   -0.0203 C   0  0  0  0  0  0  0  0  0  0  0  0
   -3.3732    0.4366   -0.1100 C   0  0  0  0  0  0  0  0  0  0  0  0
   -1.7668    2.3815   -0.2004 C   0  0  0  0  0  0  0  0  0  0  0  0
    3.5031    1.1000   -0.5516 C   0  0  0  0  0  0  0  0  0  0  0  0
    3.2738   -0.3487    1.4856 C   0  0  0  0  0  0  0  0  0  0  0  0
   -3.6930   -0.9538    0.3925 C   0  0  0  0  0  0  0  0  0  0  0  0
    0.7279    1.4195   -0.1869 H   0  0  0  0  0  0  0  0  0  0  0  0
    0.6057    0.4547    1.2883 H   0  0  0  0  0  0  0  0  0  0  0  0
   -1.0756   -1.0133    0.2379 H   0  0  0  0  0  0  0  0  0  0  0  0
   -0.9730   -0.1060   -1.2673 H   0  0  0  0  0  0  0  0  0  0  0  0
    1.4607   -0.5585   -1.4853 H   0  0  0  0  0  0  0  0  0  0  0  0
    1.3172   -1.5733   -0.0768 H   0  0  0  0  0  0  0  0  0  0  0  0
   -1.9585    0.9832    1.4211 H   0  0  0  0  0  0  0  0  0  0  0  0
   -3.4528    0.4289   -1.2036 H   0  0  0  0  0  0  0  0  0  0  0  0
   -4.1593    1.0996    0.2698 H   0  0  0  0  0  0  0  0  0  0  0  0
   -1.6501    2.3906   -1.2892 H   0  0  0  0  0  0  0  0  0  0  0  0
   -2.6178    3.0233    0.0525 H   0  0  0  0  0  0  0  0  0  0  0  0
   -0.8804    2.8394    0.2481 H   0  0  0  0  0  0  0  0  0  0  0  0
    2.9986    1.9370   -0.0596 H   0  0  0  0  0  0  0  0  0  0  0  0
    3.3319    1.1773   -1.6313 H   0  0  0  0  0  0  0  0  0  0  0  0
    4.5827    1.2163   -0.4015 H   0  0  0  0  0  0  0  0  0  0  0  0
    2.9344   -1.3150    1.8756 H   0  0  0  0  0  0  0  0  0  0  0  0
    2.7687    0.4477    2.0401 H   0  0  0  0  0  0  0  0  0  0  0  0
    4.3460   -0.2876    1.7064 H   0  0  0  0  0  0  0  0  0  0  0  0
    3.7114   -1.2085   -1.5950 H   0  0  0  0  0  0  0  0  0  0  0  0
   -3.6678   -1.0681    1.4904 H   0  0  0  0  0  0  0  0  0  0  0  0
  1  7  1  0  0  0  0
  1 31  1  0  0  0  0
  2 12  2  0  0  0  0
  3  4  1  0  0  0  0
  3  5  1  0  0  0  0
  3 13  1  0  0  0  0
  3 14  1  0  0  0  0
  4  6  1  0  0  0  0
  4 15  1  0  0  0  0
  4 16  1  0  0  0  0
  5  7  1  0  0  0  0
  5 17  1  0  0  0  0
  5 18  1  0  0  0  0
  6  8  1  0  0  0  0
  6  9  1  0  0  0  0
  6 19  1  0  0  0  0
  7 10  1  0  0  0  0
  7 11  1  0  0  0  0
  8 12  1  0  0  0  0
  8 20  1  0  0  0  0
  8 21  1  0  0  0  0
  9 22  1  0  0  0  0
  9 23  1  0  0  0  0
  9 24  1  0  0  0  0
 10 25  1  0  0  0  0
 10 26  1  0  0  0  0
 10 27  1  0  0  0  0
 11 28  1  0  0  0  0
 11 29  1  0  0  0  0
 11 30  1  0  0  0  0
 12 32  1  0  0  0  0
M  END
> <PUBCHEM_COMPOUND_CID>
1550260

> <PUBCHEM_CONFORMER_RMSD>
0.6

> <PUBCHEM_CONFORMER_DIVERSEORDER>
3
46
63
9
54
1
51
19
43
39
2
26
64
65
22
28
56
52
24
49
5
11
62
44
6
55
25
7
37
58
48
4
66
27
38
17
15
59
50
57
16
32
30
41
60
40
31
12
20
45
35
34
14
10
42
23
8
29
47
18
13
21
61
53
36
33

> <PUBCHEM_MMFF94_PARTIAL_CHARGES>
7
1 -0.68
12 0.45
2 -0.57
31 0.4
32 0.06
7 0.28
8 0.06

> <PUBCHEM_EFFECTIVE_ROTOR_COUNT>
6

> <PUBCHEM_PHARMACOPHORE_FEATURES>
6
1 1 acceptor
1 1 donor
1 2 acceptor
1 9 hydrophobe
3 7 10 11 hydrophobe
5 3 4 5 6 8 hydrophobe

> <PUBCHEM_HEAVY_ATOM_COUNT>
12

> <PUBCHEM_ATOM_DEF_STEREO_COUNT>
1

> <PUBCHEM_ATOM_UDEF_STEREO_COUNT>
0

> <PUBCHEM_BOND_DEF_STEREO_COUNT>
0

> <PUBCHEM_BOND_UDEF_STEREO_COUNT>
0

> <PUBCHEM_ISOTOPIC_ATOM_COUNT>
0

> <PUBCHEM_COMPONENT_COUNT>
1

> <PUBCHEM_CACTVS_TAUTO_COUNT>
2

> <PUBCHEM_CONFORMER_ID>
0017A7B400000003

> <PUBCHEM_MMFF94_ENERGY>
18.7262

> <PUBCHEM_FEATURE_SELFOVERLAP>
30.49

> <PUBCHEM_SHAPE_FINGERPRINT>
11987891 27 17603578629920974658
12032990 46 18272374161080064334
12916754 54 18341337720907826704
12932764 1 17386289779349585444
13296908 3 18201719513993762044
14144814 61 17821731589737745552
14325111 11 18410295778845462260
177051 138 18410293609802536238
17834072 33 18261399953452096902
17834074 16 18272656696898340878
18186145 218 17894912897486114124
18342897 69 18335416850955796393
190213 19 18343299249604202376
19050596 39 18334857199262919425
1986462 14 18339366249356710876
20281407 28 18272370884320678499
20281475 54 18343869922109230107
20645477 70 14346073071377372088
20671657 53 17313381275112628317
20871999 31 18260539048859018263
21061003 4 17275383209808218537
22213442 358 18339361976244234709
22485316 2 18333446547598763977
22959321 105 18260544537321119197
23402539 116 18260822700487459398
23557571 272 18129669586430831445
23559900 14 18341329973071661422
581208 293 15791449323101861338

> <PUBCHEM_SHAPE_MULTIPOLES>
235.22
8.45
1.76
0.9
0.14
0.52
0.24
-2.81
-0.08
-1.48
-0.21
0.73
-0.1
-0.19

> <PUBCHEM_SHAPE_SELFOVERLAP>
432.783

> <PUBCHEM_SHAPE_VOLUME>
149.8

> <PUBCHEM_COORDINATE_TYPE>
2
5
10

$$$$
