155361
  -OEChem-11232108523D

 39 39  0     1  0  0  0  0  0999 V2000
   -3.8056   -1.2843   -0.5225 O   0  0  0  0  0  0  0  0  0  0  0  0
    1.5800   -1.1355    0.2262 C   0  0  0  0  0  0  0  0  0  0  0  0
    0.6543    0.1091    0.4669 C   0  0  1  0  0  0  0  0  0  0  0  0
    2.2847   -0.9928   -1.1435 C   0  0  0  0  0  0  0  0  0  0  0  0
    1.3665    1.4247    0.1797 C   0  0  0  0  0  0  0  0  0  0  0  0
    3.0878    0.3044   -1.2730 C   0  0  0  0  0  0  0  0  0  0  0  0
    0.7843   -2.4587    0.2459 C   0  0  0  0  0  0  0  0  0  0  0  0
    2.6332   -1.2316    1.3578 C   0  0  0  0  0  0  0  0  0  0  0  0
    2.4547    1.4900   -0.6085 C   0  0  0  0  0  0  0  0  0  0  0  0
   -0.6268    0.0549   -0.3244 C   0  0  0  0  0  0  0  0  0  0  0  0
    0.8039    2.6557    0.8352 C   0  0  0  0  0  0  0  0  0  0  0  0
   -1.8906    0.0057    0.1425 C   0  0  0  0  0  0  0  0  0  0  0  0
   -3.1207   -0.0506   -0.7410 C   0  0  2  0  0  0  0  0  0  0  0  0
   -2.1301    0.0011    1.6330 C   0  0  0  0  0  0  0  0  0  0  0  0
   -4.0756    1.1078   -0.4742 C   0  0  0  0  0  0  0  0  0  0  0  0
    0.4338    0.1162    1.5405 H   0  0  0  0  0  0  0  0  0  0  0  0
    1.5396   -1.0257   -1.9492 H   0  0  0  0  0  0  0  0  0  0  0  0
    2.9534   -1.8446   -1.3227 H   0  0  0  0  0  0  0  0  0  0  0  0
    3.2406    0.5243   -2.3361 H   0  0  0  0  0  0  0  0  0  0  0  0
    4.0844    0.1617   -0.8380 H   0  0  0  0  0  0  0  0  0  0  0  0
    0.0817   -2.5290   -0.5913 H   0  0  0  0  0  0  0  0  0  0  0  0
    1.4565   -3.3214    0.1696 H   0  0  0  0  0  0  0  0  0  0  0  0
    0.2155   -2.5632    1.1765 H   0  0  0  0  0  0  0  0  0  0  0  0
    3.2353   -0.3236    1.4569 H   0  0  0  0  0  0  0  0  0  0  0  0
    2.1494   -1.4059    2.3260 H   0  0  0  0  0  0  0  0  0  0  0  0
    3.3238   -2.0641    1.1800 H   0  0  0  0  0  0  0  0  0  0  0  0
    2.9399    2.4481   -0.7772 H   0  0  0  0  0  0  0  0  0  0  0  0
   -0.5059    0.0598   -1.4076 H   0  0  0  0  0  0  0  0  0  0  0  0
    1.3971    3.5489    0.6123 H   0  0  0  0  0  0  0  0  0  0  0  0
    0.7889    2.5326    1.9230 H   0  0  0  0  0  0  0  0  0  0  0  0
   -0.2181    2.8443    0.4920 H   0  0  0  0  0  0  0  0  0  0  0  0
   -2.8333   -0.0252   -1.7987 H   0  0  0  0  0  0  0  0  0  0  0  0
   -1.4159   -0.6282    2.1717 H   0  0  0  0  0  0  0  0  0  0  0  0
   -2.0906    1.0207    2.0292 H   0  0  0  0  0  0  0  0  0  0  0  0
   -3.1159   -0.4123    1.8724 H   0  0  0  0  0  0  0  0  0  0  0  0
   -4.5062    1.0588    0.5318 H   0  0  0  0  0  0  0  0  0  0  0  0
   -4.9215    1.0620   -1.1693 H   0  0  0  0  0  0  0  0  0  0  0  0
   -3.5786    2.0752   -0.5990 H   0  0  0  0  0  0  0  0  0  0  0  0
   -3.1811   -2.0056   -0.7116 H   0  0  0  0  0  0  0  0  0  0  0  0
  1 13  1  0  0  0  0
  1 39  1  0  0  0  0
  2  3  1  0  0  0  0
  2  4  1  0  0  0  0
  2  7  1  0  0  0  0
  2  8  1  0  0  0  0
  3  5  1  0  0  0  0
  3 10  1  0  0  0  0
  3 16  1  0  0  0  0
  4  6  1  0  0  0  0
  4 17  1  0  0  0  0
  4 18  1  0  0  0  0
  5  9  2  0  0  0  0
  5 11  1  0  0  0  0
  6  9  1  0  0  0  0
  6 19  1  0  0  0  0
  6 20  1  0  0  0  0
  7 21  1  0  0  0  0
  7 22  1  0  0  0  0
  7 23  1  0  0  0  0
  8 24  1  0  0  0  0
  8 25  1  0  0  0  0
  8 26  1  0  0  0  0
  9 27  1  0  0  0  0
 10 12  2  3  0  0  0
 10 28  1  0  0  0  0
 11 29  1  0  0  0  0
 11 30  1  0  0  0  0
 11 31  1  0  0  0  0
 12 13  1  0  0  0  0
 12 14  1  0  0  0  0
 13 15  1  0  0  0  0
 13 32  1  0  0  0  0
 14 33  1  0  0  0  0
 14 34  1  0  0  0  0
 14 35  1  0  0  0  0
 15 36  1  0  0  0  0
 15 37  1  0  0  0  0
 15 38  1  0  0  0  0
M  END
> <PUBCHEM_COMPOUND_CID>
155361

> <PUBCHEM_CONFORMER_RMSD>
0.6

> <PUBCHEM_CONFORMER_DIVERSEORDER>
3
4
9
5
8
6
2
7
1

> <PUBCHEM_MMFF94_PARTIAL_CHARGES>
13
1 -0.68
10 -0.29
11 0.14
12 -0.28
13 0.42
14 0.14
27 0.15
28 0.15
3 0.28
39 0.4
5 -0.28
6 0.14
9 -0.29

> <PUBCHEM_EFFECTIVE_ROTOR_COUNT>
2.8

> <PUBCHEM_PHARMACOPHORE_FEATURES>
5
1 1 acceptor
1 1 donor
1 14 hydrophobe
3 2 7 8 hydrophobe
6 2 3 4 5 6 9 rings

> <PUBCHEM_HEAVY_ATOM_COUNT>
15

> <PUBCHEM_ATOM_DEF_STEREO_COUNT>
0

> <PUBCHEM_ATOM_UDEF_STEREO_COUNT>
0

> <PUBCHEM_BOND_DEF_STEREO_COUNT>
0

> <PUBCHEM_BOND_UDEF_STEREO_COUNT>
1

> <PUBCHEM_ISOTOPIC_ATOM_COUNT>
0

> <PUBCHEM_COMPONENT_COUNT>
1

> <PUBCHEM_CACTVS_TAUTO_COUNT>
1

> <PUBCHEM_CONFORMER_ID>
00025EE100000003

> <PUBCHEM_MMFF94_ENERGY>
26.8355

> <PUBCHEM_FEATURE_SELFOVERLAP>
25.371

> <PUBCHEM_SHAPE_FINGERPRINT>
10980938 120 18410293622576694388
11031198 65 18187651305676649197
116883 192 17767124202799333373
12654215 9 18334014982267906308
12932764 1 18408606976583097533
15219456 202 17458635518200274699
15490181 7 17975698603845963794
15775835 57 18334859445588883063
16752209 62 16988562347787012465
16945 1 17968109633041703616
18186145 218 18341906215569010213
19862831 5 18131074835516108413
20233049 118 18408323272307578300
20559304 39 18341605984565044025
20645477 70 18410569570521553487
212847 35 18116146680595010237
21501502 16 18187642458091654597
21524375 3 17694775620585576056
22802520 49 17749396901589898221
23402539 116 18271536299603766086
23402655 69 18408886200886539445
23419403 2 12147595023406348184
23557571 272 17773024259724891304
23598291 2 18059584563951123009
25 1 18333737896583962359
2748010 2 17693108769742636576
3060560 45 18413107285812027622
3286 77 18188754124556064463
549884 4 18272093845807983124
58051976 378 18124020497819273815
63268167 104 18342747341927491560
7364860 26 17846212331894043032
74978 22 18272934925359394589
81228 2 17615690635411851088
93112 12 18412822478468176669

> <PUBCHEM_SHAPE_MULTIPOLES>
302.82
5.97
2.22
1.29
5.96
0.35
-0.21
-0.1
1.67
-1.11
-0.42
-0.31
-0.05
-0.29

> <PUBCHEM_SHAPE_SELFOVERLAP>
598.641

> <PUBCHEM_SHAPE_VOLUME>
181.2

> <PUBCHEM_COORDINATE_TYPE>
2
5
10

$$$$
