155529
  -OEChem-11232109493D

 19 19  0     1  0  0  0  0  0999 V2000
   -1.2433    1.3017   -0.2125 S   0  0  0  0  0  0  0  0  0  0  0  0
   -0.4988   -0.2325    0.4346 C   0  0  1  0  0  0  0  0  0  0  0  0
   -1.6926   -1.0323   -0.1406 C   0  0  0  0  0  0  0  0  0  0  0  0
    0.8338   -0.5140   -0.2333 C   0  0  0  0  0  0  0  0  0  0  0  0
   -2.6567    0.1698    0.0062 C   0  0  0  0  0  0  0  0  0  0  0  0
    1.9631    0.2835    0.4161 C   0  0  0  0  0  0  0  0  0  0  0  0
    3.2944    0.0238   -0.2705 C   0  0  0  0  0  0  0  0  0  0  0  0
   -0.4582   -0.2691    1.5304 H   0  0  0  0  0  0  0  0  0  0  0  0
   -1.9757   -1.9143    0.4440 H   0  0  0  0  0  0  0  0  0  0  0  0
   -1.5649   -1.3627   -1.1812 H   0  0  0  0  0  0  0  0  0  0  0  0
    0.7999   -0.3179   -1.3129 H   0  0  0  0  0  0  0  0  0  0  0  0
    1.0633   -1.5824   -0.1264 H   0  0  0  0  0  0  0  0  0  0  0  0
   -3.4327    0.2282   -0.7617 H   0  0  0  0  0  0  0  0  0  0  0  0
   -3.1293    0.2481    0.9911 H   0  0  0  0  0  0  0  0  0  0  0  0
    2.0436    0.0183    1.4770 H   0  0  0  0  0  0  0  0  0  0  0  0
    1.7482    1.3573    0.3754 H   0  0  0  0  0  0  0  0  0  0  0  0
    3.5631   -1.0361   -0.2176 H   0  0  0  0  0  0  0  0  0  0  0  0
    3.2564    0.3172   -1.3245 H   0  0  0  0  0  0  0  0  0  0  0  0
    4.0893    0.5998    0.2136 H   0  0  0  0  0  0  0  0  0  0  0  0
  1  2  1  0  0  0  0
  1  5  1  0  0  0  0
  2  3  1  0  0  0  0
  2  4  1  0  0  0  0
  2  8  1  0  0  0  0
  3  5  1  0  0  0  0
  3  9  1  0  0  0  0
  3 10  1  0  0  0  0
  4  6  1  0  0  0  0
  4 11  1  0  0  0  0
  4 12  1  0  0  0  0
  5 13  1  0  0  0  0
  5 14  1  0  0  0  0
  6  7  1  0  0  0  0
  6 15  1  0  0  0  0
  6 16  1  0  0  0  0
  7 17  1  0  0  0  0
  7 18  1  0  0  0  0
  7 19  1  0  0  0  0
M  END
> <PUBCHEM_COMPOUND_CID>
155529

> <PUBCHEM_CONFORMER_RMSD>
0.4

> <PUBCHEM_CONFORMER_DIVERSEORDER>
1
17
3
16
4
6
13
2
7
15
11
5
12
9
14
8
10

> <PUBCHEM_MMFF94_PARTIAL_CHARGES>
3
1 -0.43
2 0.22
5 0.22

> <PUBCHEM_EFFECTIVE_ROTOR_COUNT>
2.8

> <PUBCHEM_PHARMACOPHORE_FEATURES>
2
1 7 hydrophobe
4 1 2 3 5 rings

> <PUBCHEM_HEAVY_ATOM_COUNT>
7

> <PUBCHEM_ATOM_DEF_STEREO_COUNT>
0

> <PUBCHEM_ATOM_UDEF_STEREO_COUNT>
1

> <PUBCHEM_BOND_DEF_STEREO_COUNT>
0

> <PUBCHEM_BOND_UDEF_STEREO_COUNT>
0

> <PUBCHEM_ISOTOPIC_ATOM_COUNT>
0

> <PUBCHEM_COMPONENT_COUNT>
1

> <PUBCHEM_CACTVS_TAUTO_COUNT>
1

> <PUBCHEM_CONFORMER_ID>
00025F8900000001

> <PUBCHEM_MMFF94_ENERGY>
8.1693

> <PUBCHEM_FEATURE_SELFOVERLAP>
10.148

> <PUBCHEM_SHAPE_FINGERPRINT>
10857977 72 18338227284148732921
11062470 55 14634867548169710439
12897270 3 18413666920055821238
12932764 1 18342734122329267426
14325111 11 18411699881153729578
14390081 3 18411976957883612080
16714656 1 18411417315128666741
21040471 1 18265610975032177441
23552423 10 18188488094059892234
29004967 10 16343707646523483210
369184 2 15574710300651961193
5084963 1 18272089417860055880
5460574 1 10015866483225188274

> <PUBCHEM_SHAPE_MULTIPOLES>
147.91
4.44
1.11
0.71
2.81
0.18
0.01
0.16
-0.28
-0.56
-0.08
0.05
0.01
0.06

> <PUBCHEM_SHAPE_SELFOVERLAP>
262.87

> <PUBCHEM_SHAPE_VOLUME>
98.3

> <PUBCHEM_COORDINATE_TYPE>
2
5
10

$$$$
