155626
  -OEChem-11232108523D

 27 27  0     1  0  0  0  0  0999 V2000
   -2.2125   -0.0718    1.4468 O   0  0  0  0  0  0  0  0  0  0  0  0
   -1.9442    0.0169    0.0438 C   0  0  2  0  0  0  0  0  0  0  0  0
   -1.2339   -1.2805   -0.3877 C   0  0  0  0  0  0  0  0  0  0  0  0
    0.2317   -1.2883    0.0513 C   0  0  0  0  0  0  0  0  0  0  0  0
    0.9980   -0.1006   -0.5556 C   0  0  1  0  0  0  0  0  0  0  0  0
   -1.0920    1.2385   -0.1902 C   0  0  0  0  0  0  0  0  0  0  0  0
    0.2168    1.1852   -0.4782 C   0  0  0  0  0  0  0  0  0  0  0  0
   -3.2860    0.1377   -0.6842 C   0  0  0  0  0  0  0  0  0  0  0  0
    2.3352    0.0270    0.1093 C   0  0  0  0  0  0  0  0  0  0  0  0
    3.5335   -0.1443   -0.7764 C   0  0  0  0  0  0  0  0  0  0  0  0
    2.4534    0.2804    1.4211 C   0  0  0  0  0  0  0  0  0  0  0  0
   -1.2726   -1.3917   -1.4794 H   0  0  0  0  0  0  0  0  0  0  0  0
   -1.7354   -2.1550    0.0451 H   0  0  0  0  0  0  0  0  0  0  0  0
    0.2620   -1.2871    1.1482 H   0  0  0  0  0  0  0  0  0  0  0  0
    0.6993   -2.2287   -0.2678 H   0  0  0  0  0  0  0  0  0  0  0  0
    1.1459   -0.3068   -1.6249 H   0  0  0  0  0  0  0  0  0  0  0  0
   -1.5710    2.2124   -0.1266 H   0  0  0  0  0  0  0  0  0  0  0  0
    0.7415    2.1168   -0.6768 H   0  0  0  0  0  0  0  0  0  0  0  0
   -3.8519    1.0048   -0.3234 H   0  0  0  0  0  0  0  0  0  0  0  0
   -3.1538    0.2388   -1.7669 H   0  0  0  0  0  0  0  0  0  0  0  0
   -3.9144   -0.7402   -0.4939 H   0  0  0  0  0  0  0  0  0  0  0  0
   -2.7920   -0.8383    1.5966 H   0  0  0  0  0  0  0  0  0  0  0  0
    3.5278   -1.1382   -1.2357 H   0  0  0  0  0  0  0  0  0  0  0  0
    3.5299    0.6082   -1.5718 H   0  0  0  0  0  0  0  0  0  0  0  0
    4.4729   -0.0391   -0.2235 H   0  0  0  0  0  0  0  0  0  0  0  0
    3.4287    0.3695    1.8886 H   0  0  0  0  0  0  0  0  0  0  0  0
    1.5893    0.4146    2.0631 H   0  0  0  0  0  0  0  0  0  0  0  0
  1  2  1  0  0  0  0
  1 22  1  0  0  0  0
  2  3  1  0  0  0  0
  2  6  1  0  0  0  0
  2  8  1  0  0  0  0
  3  4  1  0  0  0  0
  3 12  1  0  0  0  0
  3 13  1  0  0  0  0
  4  5  1  0  0  0  0
  4 14  1  0  0  0  0
  4 15  1  0  0  0  0
  5  7  1  0  0  0  0
  5  9  1  0  0  0  0
  5 16  1  0  0  0  0
  6  7  2  0  0  0  0
  6 17  1  0  0  0  0
  7 18  1  0  0  0  0
  8 19  1  0  0  0  0
  8 20  1  0  0  0  0
  8 21  1  0  0  0  0
  9 10  1  0  0  0  0
  9 11  2  0  0  0  0
 10 23  1  0  0  0  0
 10 24  1  0  0  0  0
 10 25  1  0  0  0  0
 11 26  1  0  0  0  0
 11 27  1  0  0  0  0
M  END
> <PUBCHEM_COMPOUND_CID>
155626

> <PUBCHEM_CONFORMER_RMSD>
0.4

> <PUBCHEM_CONFORMER_DIVERSEORDER>
1
3
7
5
6
2
4

> <PUBCHEM_MMFF94_PARTIAL_CHARGES>
13
1 -0.68
10 0.14
11 -0.3
17 0.15
18 0.15
2 0.42
22 0.4
26 0.15
27 0.15
5 0.28
6 -0.29
7 -0.29
9 -0.28

> <PUBCHEM_EFFECTIVE_ROTOR_COUNT>
1.8

> <PUBCHEM_PHARMACOPHORE_FEATURES>
3
1 1 acceptor
1 1 donor
6 2 3 4 5 6 7 rings

> <PUBCHEM_HEAVY_ATOM_COUNT>
11

> <PUBCHEM_ATOM_DEF_STEREO_COUNT>
0

> <PUBCHEM_ATOM_UDEF_STEREO_COUNT>
2

> <PUBCHEM_BOND_DEF_STEREO_COUNT>
0

> <PUBCHEM_BOND_UDEF_STEREO_COUNT>
0

> <PUBCHEM_ISOTOPIC_ATOM_COUNT>
0

> <PUBCHEM_COMPONENT_COUNT>
1

> <PUBCHEM_CACTVS_TAUTO_COUNT>
1

> <PUBCHEM_CONFORMER_ID>
00025FEA00000001

> <PUBCHEM_MMFF94_ENERGY>
16.757

> <PUBCHEM_FEATURE_SELFOVERLAP>
15.223

> <PUBCHEM_SHAPE_FINGERPRINT>
10857977 72 18408039632371795289
11062470 55 16443063885106627781
12162725 195 16200434675759171266
12932764 1 18201997707663009326
13024252 1 17167860868047420895
14993402 34 18334574659118378343
15310529 11 16081081584699462484
15775835 57 18343584005862145706
16945 1 18410290311156779237
20645464 45 17988347248415564450
20653085 51 15123521310463609098
23235685 24 18335420153505916295
23402539 116 15841547449424642629
23552423 10 17752205251665602532
2748010 2 18121497118264191287
29004967 10 14634868647945062852
3248919 1 17095796659754575818
369184 2 16487253291834091175
5084963 1 18131632283378988092
57812782 119 16559028289940512270

> <PUBCHEM_SHAPE_MULTIPOLES>
220.51
4.89
1.2
1.1
1.05
0.07
-0.36
-0.06
0.26
-0.27
0.11
0.23
-0.06
0.15

> <PUBCHEM_SHAPE_SELFOVERLAP>
439.219

> <PUBCHEM_SHAPE_VOLUME>
131

> <PUBCHEM_COORDINATE_TYPE>
2
5
10

$$$$
