15605
  -OEChem-11232109043D

 41 40  0     0  0  0  0  0  0999 V2000
    5.1919    0.4982   -0.0342 O   0  0  0  0  0  0  0  0  0  0  0  0
    6.5962   -1.3363   -0.0337 O   0  0  0  0  0  0  0  0  0  0  0  0
   -2.3522    0.4653    0.0675 C   0  0  0  0  0  0  0  0  0  0  0  0
   -1.0583   -0.3555    0.0665 C   0  0  0  0  0  0  0  0  0  0  0  0
   -3.6157   -0.3976    0.0975 C   0  0  0  0  0  0  0  0  0  0  0  0
    0.2417    0.4540    0.1168 C   0  0  0  0  0  0  0  0  0  0  0  0
   -4.9097    0.4196    0.0192 C   0  0  0  0  0  0  0  0  0  0  0  0
    1.5366   -0.3617    0.0597 C   0  0  0  0  0  0  0  0  0  0  0  0
   -6.2074   -0.3918   -0.0445 C   0  0  0  0  0  0  0  0  0  0  0  0
    2.7974    0.4997    0.0266 C   0  0  0  0  0  0  0  0  0  0  0  0
   -7.4669    0.4746   -0.0641 C   0  0  0  0  0  0  0  0  0  0  0  0
    4.0572   -0.3558    0.0115 C   0  0  0  0  0  0  0  0  0  0  0  0
   -8.7250   -0.3774   -0.1349 C   0  0  0  0  0  0  0  0  0  0  0  0
    6.4083   -0.1274   -0.0527 C   0  0  0  0  0  0  0  0  0  0  0  0
    7.5059    0.8920   -0.1012 C   0  0  0  0  0  0  0  0  0  0  0  0
   -2.3538    1.1341    0.9368 H   0  0  0  0  0  0  0  0  0  0  0  0
   -2.3673    1.1044   -0.8239 H   0  0  0  0  0  0  0  0  0  0  0  0
   -1.0446   -0.9865   -0.8311 H   0  0  0  0  0  0  0  0  0  0  0  0
   -1.0724   -1.0394    0.9245 H   0  0  0  0  0  0  0  0  0  0  0  0
   -3.5898   -1.1004   -0.7444 H   0  0  0  0  0  0  0  0  0  0  0  0
   -3.6249   -1.0009    1.0133 H   0  0  0  0  0  0  0  0  0  0  0  0
    0.2444    1.0590    1.0322 H   0  0  0  0  0  0  0  0  0  0  0  0
    0.2381    1.1627   -0.7211 H   0  0  0  0  0  0  0  0  0  0  0  0
   -4.8639    1.0685   -0.8649 H   0  0  0  0  0  0  0  0  0  0  0  0
   -4.9524    1.0869    0.8894 H   0  0  0  0  0  0  0  0  0  0  0  0
    1.5151   -1.0023   -0.8306 H   0  0  0  0  0  0  0  0  0  0  0  0
    1.5718   -1.0300    0.9290 H   0  0  0  0  0  0  0  0  0  0  0  0
   -6.2464   -1.0664    0.8198 H   0  0  0  0  0  0  0  0  0  0  0  0
   -6.1863   -1.0260   -0.9393 H   0  0  0  0  0  0  0  0  0  0  0  0
    2.8222    1.1686    0.8957 H   0  0  0  0  0  0  0  0  0  0  0  0
    2.7870    1.1526   -0.8549 H   0  0  0  0  0  0  0  0  0  0  0  0
   -7.5027    1.0983    0.8365 H   0  0  0  0  0  0  0  0  0  0  0  0
   -7.4388    1.1503   -0.9266 H   0  0  0  0  0  0  0  0  0  0  0  0
    4.1017   -0.9742    0.9157 H   0  0  0  0  0  0  0  0  0  0  0  0
    4.0567   -1.0083   -0.8696 H   0  0  0  0  0  0  0  0  0  0  0  0
   -8.7334   -0.9903   -1.0419 H   0  0  0  0  0  0  0  0  0  0  0  0
   -9.6142    0.2606   -0.1480 H   0  0  0  0  0  0  0  0  0  0  0  0
   -8.7973   -1.0433    0.7310 H   0  0  0  0  0  0  0  0  0  0  0  0
    7.4150    1.4910   -1.0107 H   0  0  0  0  0  0  0  0  0  0  0  0
    8.4738    0.3827   -0.1143 H   0  0  0  0  0  0  0  0  0  0  0  0
    7.4594    1.5287    0.7858 H   0  0  0  0  0  0  0  0  0  0  0  0
  1 12  1  0  0  0  0
  1 14  1  0  0  0  0
  2 14  2  0  0  0  0
  3  4  1  0  0  0  0
  3  5  1  0  0  0  0
  3 16  1  0  0  0  0
  3 17  1  0  0  0  0
  4  6  1  0  0  0  0
  4 18  1  0  0  0  0
  4 19  1  0  0  0  0
  5  7  1  0  0  0  0
  5 20  1  0  0  0  0
  5 21  1  0  0  0  0
  6  8  1  0  0  0  0
  6 22  1  0  0  0  0
  6 23  1  0  0  0  0
  7  9  1  0  0  0  0
  7 24  1  0  0  0  0
  7 25  1  0  0  0  0
  8 10  1  0  0  0  0
  8 26  1  0  0  0  0
  8 27  1  0  0  0  0
  9 11  1  0  0  0  0
  9 28  1  0  0  0  0
  9 29  1  0  0  0  0
 10 12  1  0  0  0  0
 10 30  1  0  0  0  0
 10 31  1  0  0  0  0
 11 13  1  0  0  0  0
 11 32  1  0  0  0  0
 11 33  1  0  0  0  0
 12 34  1  0  0  0  0
 12 35  1  0  0  0  0
 13 36  1  0  0  0  0
 13 37  1  0  0  0  0
 13 38  1  0  0  0  0
 14 15  1  0  0  0  0
 15 39  1  0  0  0  0
 15 40  1  0  0  0  0
 15 41  1  0  0  0  0
M  END
> <PUBCHEM_COMPOUND_CID>
15605

> <PUBCHEM_CONFORMER_RMSD>
1.2

> <PUBCHEM_CONFORMER_DIVERSEORDER>
1
49
51
25
21
33
55
28
68
74
16
35
12
37
29
15
13
38
44
30
73
14
6
58
23
9
5
52
43
46
42
4
34
54
11
19
62
17
39
22
64
48
69
50
60
24
65
59
2
40
41
47
61
7
32
8
53
72
31
57
71
67
3
26
20
45
75
70
56
10
18
36
66
63
27

> <PUBCHEM_MMFF94_PARTIAL_CHARGES>
5
1 -0.43
12 0.28
14 0.66
15 0.06
2 -0.57

> <PUBCHEM_EFFECTIVE_ROTOR_COUNT>
11

> <PUBCHEM_PHARMACOPHORE_FEATURES>
2
1 13 hydrophobe
1 2 acceptor

> <PUBCHEM_HEAVY_ATOM_COUNT>
15

> <PUBCHEM_ATOM_DEF_STEREO_COUNT>
0

> <PUBCHEM_ATOM_UDEF_STEREO_COUNT>
0

> <PUBCHEM_BOND_DEF_STEREO_COUNT>
0

> <PUBCHEM_BOND_UDEF_STEREO_COUNT>
0

> <PUBCHEM_ISOTOPIC_ATOM_COUNT>
0

> <PUBCHEM_COMPONENT_COUNT>
1

> <PUBCHEM_CACTVS_TAUTO_COUNT>
1

> <PUBCHEM_CONFORMER_ID>
00003CF500000001

> <PUBCHEM_MMFF94_ENERGY>
2.4215

> <PUBCHEM_FEATURE_SELFOVERLAP>
10.148

> <PUBCHEM_SHAPE_FINGERPRINT>
11315181 36 18343868831862763993
11638347 137 12823303386022257708
12091667 2 18410012140117623625
13533116 47 15647320923659630848
14123256 10 18410573985156732393
14251764 18 17988927760347840801
14251764 46 17385443228225804696
17834076 25 18410575084668353665
18006028 8 17847061082294072633
20281389 69 18333447638515630700
20621476 8 17603301536006084591
21150785 3 18342175574696121465
21315763 28 18413670214834158233
22224240 67 16298385777147364219
23521765 1 18342176670055200201
246663 6 14979959181332171973
28498 318 18411136913730386383
33684 2 18410573985151451146
42788 4 18410856555698341128
59755656 520 18260542351399614687
67123 10 18411136961191206877
8209 1 18410575088963327461

> <PUBCHEM_SHAPE_MULTIPOLES>
296.95
27.49
0.89
0.61
10.25
0.06
0
0.32
-1.58
-0.75
-0.01
0.08
-0.01
-0.04

> <PUBCHEM_SHAPE_SELFOVERLAP>
536.102

> <PUBCHEM_SHAPE_VOLUME>
190.8

> <PUBCHEM_COORDINATE_TYPE>
2
5
10

$$$$
