1565622
  -OEChem-11232109273D

 24 24  0     0  0  0  0  0  0999 V2000
    4.0469   -0.4376   -0.0215 O   0  0  0  0  0  0  0  0  0  0  0  0
    1.6686    0.8007    1.0254 C   0  0  0  0  0  0  0  0  0  0  0  0
    1.6595   -0.2987   -0.0037 C   0  0  0  0  0  0  0  0  0  0  0  0
   -0.8056   -0.4577   -0.3211 C   0  0  0  0  0  0  0  0  0  0  0  0
    0.5828   -0.8368   -0.6029 C   0  0  0  0  0  0  0  0  0  0  0  0
    1.7635    2.1841    0.3965 C   0  0  0  0  0  0  0  0  0  0  0  0
   -1.5164   -1.1355    0.6608 C   0  0  0  0  0  0  0  0  0  0  0  0
   -1.3917    0.5764   -1.0392 C   0  0  0  0  0  0  0  0  0  0  0  0
   -2.8361   -0.7726    0.9294 C   0  0  0  0  0  0  0  0  0  0  0  0
   -2.7114    0.9393   -0.7706 C   0  0  0  0  0  0  0  0  0  0  0  0
    2.9735   -0.8264   -0.4668 C   0  0  0  0  0  0  0  0  0  0  0  0
   -3.4337    0.2648    0.2137 C   0  0  0  0  0  0  0  0  0  0  0  0
    0.7636    0.7532    1.6424 H   0  0  0  0  0  0  0  0  0  0  0  0
    2.5018    0.6567    1.7237 H   0  0  0  0  0  0  0  0  0  0  0  0
    0.6847   -1.6182   -1.3526 H   0  0  0  0  0  0  0  0  0  0  0  0
    1.7742    2.9515    1.1773 H   0  0  0  0  0  0  0  0  0  0  0  0
    0.9136    2.3879   -0.2616 H   0  0  0  0  0  0  0  0  0  0  0  0
    2.6816    2.2899   -0.1912 H   0  0  0  0  0  0  0  0  0  0  0  0
   -1.0626   -1.9455    1.2261 H   0  0  0  0  0  0  0  0  0  0  0  0
   -0.8415    1.1092   -1.8105 H   0  0  0  0  0  0  0  0  0  0  0  0
   -3.3985   -1.2977    1.6959 H   0  0  0  0  0  0  0  0  0  0  0  0
   -3.1768    1.7468   -1.3281 H   0  0  0  0  0  0  0  0  0  0  0  0
    2.9345   -1.6064   -1.2461 H   0  0  0  0  0  0  0  0  0  0  0  0
   -4.4613    0.5474    0.4229 H   0  0  0  0  0  0  0  0  0  0  0  0
  1 11  2  0  0  0  0
  2  3  1  0  0  0  0
  2  6  1  0  0  0  0
  2 13  1  0  0  0  0
  2 14  1  0  0  0  0
  3  5  2  0  0  0  0
  3 11  1  0  0  0  0
  4  5  1  0  0  0  0
  4  7  2  0  0  0  0
  4  8  1  0  0  0  0
  5 15  1  0  0  0  0
  6 16  1  0  0  0  0
  6 17  1  0  0  0  0
  6 18  1  0  0  0  0
  7  9  1  0  0  0  0
  7 19  1  0  0  0  0
  8 10  2  0  0  0  0
  8 20  1  0  0  0  0
  9 12  2  0  0  0  0
  9 21  1  0  0  0  0
 10 12  1  0  0  0  0
 10 22  1  0  0  0  0
 11 23  1  0  0  0  0
 12 24  1  0  0  0  0
M  END
> <PUBCHEM_COMPOUND_CID>
1565622

> <PUBCHEM_CONFORMER_RMSD>
0.6

> <PUBCHEM_CONFORMER_DIVERSEORDER>
1
4
5
6
2
3

> <PUBCHEM_MMFF94_PARTIAL_CHARGES>
18
1 -0.57
10 -0.15
11 0.5
12 -0.15
15 0.15
19 0.15
2 0.14
20 0.15
21 0.15
22 0.15
23 0.06
24 0.15
3 -0.12
4 0.03
5 -0.18
7 -0.15
8 -0.15
9 -0.15

> <PUBCHEM_EFFECTIVE_ROTOR_COUNT>
3

> <PUBCHEM_PHARMACOPHORE_FEATURES>
3
1 1 acceptor
1 6 hydrophobe
6 4 7 8 9 10 12 rings

> <PUBCHEM_HEAVY_ATOM_COUNT>
12

> <PUBCHEM_ATOM_DEF_STEREO_COUNT>
0

> <PUBCHEM_ATOM_UDEF_STEREO_COUNT>
0

> <PUBCHEM_BOND_DEF_STEREO_COUNT>
1

> <PUBCHEM_BOND_UDEF_STEREO_COUNT>
0

> <PUBCHEM_ISOTOPIC_ATOM_COUNT>
0

> <PUBCHEM_COMPONENT_COUNT>
1

> <PUBCHEM_CACTVS_TAUTO_COUNT>
1

> <PUBCHEM_CONFORMER_ID>
0017E3B600000001

> <PUBCHEM_MMFF94_ENERGY>
24.4314

> <PUBCHEM_FEATURE_SELFOVERLAP>
15.223

> <PUBCHEM_SHAPE_FINGERPRINT>
10130415 120 18338231562321333458
10219947 1 17704073963025326614
10465860 250 18335411319422982674
10608611 8 18408600383344490325
10857977 72 17749391503063563143
124424 183 18336822001004124662
12500047 106 17822284657103248455
12696612 119 18042680796154411356
12932764 1 18260258664007805291
14648413 74 18337951302546288240
15219456 202 18337389443393149864
15653759 3 18260266356251774640
15775835 57 17603865546832167985
16945 1 18340758261094838415
17357990 137 16127554685667998625
17844478 74 18334581247703912921
18175812 5 18409169943595231287
19422 9 16009034960203421122
19973954 147 18411135874427655745
20201158 50 18412545375198545295
20645464 45 18409733945815698495
20653085 51 18130780157894280261
20715346 28 18334571390822468949
21130352 189 18342453733905630952
21501502 16 18127409170775249406
23175994 123 18270408187456365414
3248919 1 16487262096548800703
369184 2 18341327868637893579
53812653 166 18261392208924643323
74978 22 17703504497369023366
77492 1 16128655240872567839

> <PUBCHEM_SHAPE_MULTIPOLES>
241.09
5.86
1.5
1.03
1.33
0.71
0.03
-0.26
0.28
0.55
0.16
-0.29
0.06
0.86

> <PUBCHEM_SHAPE_SELFOVERLAP>
492.822

> <PUBCHEM_SHAPE_VOLUME>
139.8

> <PUBCHEM_COORDINATE_TYPE>
2
5
10

$$$$
