15667721
  -OEChem-11232108493D

 35 34  0     0  0  0  0  0  0999 V2000
   -1.2915   -2.5867    0.0582 S   0  0  0  0  0  0  0  0  0  0  0  0
    1.8653   -2.4063   -0.7494 S   0  0  0  0  0  0  0  0  0  0  0  0
    0.6011   -2.6688    0.8481 S   0  0  0  0  0  0  0  0  0  0  0  0
   -3.4303    0.9768   -0.2871 C   0  0  0  0  0  0  0  0  0  0  0  0
    2.8511    1.4113    0.5859 C   0  0  0  0  0  0  0  0  0  0  0  0
   -3.0551   -0.5164   -0.3641 C   0  0  0  0  0  0  0  0  0  0  0  0
    2.6587   -0.1176    0.5423 C   0  0  0  0  0  0  0  0  0  0  0  0
   -1.6591   -0.8114    0.1817 C   0  0  0  0  0  0  0  0  0  0  0  0
    2.0588   -0.6078   -0.7743 C   0  0  0  0  0  0  0  0  0  0  0  0
   -3.3707    1.4530    1.1665 C   0  0  0  0  0  0  0  0  0  0  0  0
   -2.5239    1.8524   -1.1538 C   0  0  0  0  0  0  0  0  0  0  0  0
    3.7703    1.8518   -0.5561 C   0  0  0  0  0  0  0  0  0  0  0  0
    1.5255    2.1697    0.5019 C   0  0  0  0  0  0  0  0  0  0  0  0
   -4.4610    1.0823   -0.6480 H   0  0  0  0  0  0  0  0  0  0  0  0
    3.3332    1.6620    1.5390 H   0  0  0  0  0  0  0  0  0  0  0  0
   -3.8024   -1.0944    0.1957 H   0  0  0  0  0  0  0  0  0  0  0  0
   -3.1244   -0.8407   -1.4107 H   0  0  0  0  0  0  0  0  0  0  0  0
    3.6327   -0.5972    0.7084 H   0  0  0  0  0  0  0  0  0  0  0  0
    2.0288   -0.3792    1.3987 H   0  0  0  0  0  0  0  0  0  0  0  0
   -0.9153   -0.2571   -0.3889 H   0  0  0  0  0  0  0  0  0  0  0  0
   -1.5832   -0.5317    1.2357 H   0  0  0  0  0  0  0  0  0  0  0  0
    1.1044   -0.1364   -1.0078 H   0  0  0  0  0  0  0  0  0  0  0  0
    2.7327   -0.3909   -1.6081 H   0  0  0  0  0  0  0  0  0  0  0  0
   -3.9388    0.7873    1.8248 H   0  0  0  0  0  0  0  0  0  0  0  0
   -2.3455    1.5246    1.5433 H   0  0  0  0  0  0  0  0  0  0  0  0
   -3.8121    2.4525    1.2505 H   0  0  0  0  0  0  0  0  0  0  0  0
   -2.5024    1.4874   -2.1858 H   0  0  0  0  0  0  0  0  0  0  0  0
   -2.8967    2.8824   -1.1727 H   0  0  0  0  0  0  0  0  0  0  0  0
   -1.4964    1.8845   -0.7798 H   0  0  0  0  0  0  0  0  0  0  0  0
    4.6941    1.2638   -0.5692 H   0  0  0  0  0  0  0  0  0  0  0  0
    3.2908    1.7690   -1.5365 H   0  0  0  0  0  0  0  0  0  0  0  0
    4.0520    2.9028   -0.4254 H   0  0  0  0  0  0  0  0  0  0  0  0
    0.8255    1.8171    1.2665 H   0  0  0  0  0  0  0  0  0  0  0  0
    1.6890    3.2401    0.6681 H   0  0  0  0  0  0  0  0  0  0  0  0
    1.0475    2.0608   -0.4763 H   0  0  0  0  0  0  0  0  0  0  0  0
  1  3  1  0  0  0  0
  1  8  1  0  0  0  0
  2  3  1  0  0  0  0
  2  9  1  0  0  0  0
  4  6  1  0  0  0  0
  4 10  1  0  0  0  0
  4 11  1  0  0  0  0
  4 14  1  0  0  0  0
  5  7  1  0  0  0  0
  5 12  1  0  0  0  0
  5 13  1  0  0  0  0
  5 15  1  0  0  0  0
  6  8  1  0  0  0  0
  6 16  1  0  0  0  0
  6 17  1  0  0  0  0
  7  9  1  0  0  0  0
  7 18  1  0  0  0  0
  7 19  1  0  0  0  0
  8 20  1  0  0  0  0
  8 21  1  0  0  0  0
  9 22  1  0  0  0  0
  9 23  1  0  0  0  0
 10 24  1  0  0  0  0
 10 25  1  0  0  0  0
 10 26  1  0  0  0  0
 11 27  1  0  0  0  0
 11 28  1  0  0  0  0
 11 29  1  0  0  0  0
 12 30  1  0  0  0  0
 12 31  1  0  0  0  0
 12 32  1  0  0  0  0
 13 33  1  0  0  0  0
 13 34  1  0  0  0  0
 13 35  1  0  0  0  0
M  END
> <PUBCHEM_COMPOUND_CID>
15667721

> <PUBCHEM_CONFORMER_RMSD>
0.8

> <PUBCHEM_CONFORMER_DIVERSEORDER>
3
141
29
2
30
1
6
45
44
36
8
47
123
35
5
134
43
14
4
119
13
7
135
42
58
110
37
159
84
106
121
38
126
52
55
132
82
120
51
56
130
57
19
83
122
53
21
31
78
40
103
81
54
59
9
28
34
144
25
77
125
74
26
67
62
33
23
109
124
12
138
60
75
27
20
39
115
137
68
104
24
107
32
11
102
64
41
10
61
139
99
117
22
66
154
140
108
70
46
63
157
155
69
48
118
152
90
142
50
65
153
15
49
116
85
161
89
17
96
143
105
72
86
16
94
145
18
71
156
158
129
95
128
93
133
131
127
160
136
146
87
91
76
80
88
73
92
79
147
165
151
162
149
163
111
150
164
148
112
113
114
97
98
100
101

> <PUBCHEM_MMFF94_PARTIAL_CHARGES>
4
1 -0.23
2 -0.23
8 0.23
9 0.23

> <PUBCHEM_EFFECTIVE_ROTOR_COUNT>
8

> <PUBCHEM_PHARMACOPHORE_FEATURES>
2
3 4 10 11 hydrophobe
3 5 12 13 hydrophobe

> <PUBCHEM_HEAVY_ATOM_COUNT>
13

> <PUBCHEM_ATOM_DEF_STEREO_COUNT>
0

> <PUBCHEM_ATOM_UDEF_STEREO_COUNT>
0

> <PUBCHEM_BOND_DEF_STEREO_COUNT>
0

> <PUBCHEM_BOND_UDEF_STEREO_COUNT>
0

> <PUBCHEM_ISOTOPIC_ATOM_COUNT>
0

> <PUBCHEM_COMPONENT_COUNT>
1

> <PUBCHEM_CACTVS_TAUTO_COUNT>
1

> <PUBCHEM_CONFORMER_ID>
00EF120900000003

> <PUBCHEM_MMFF94_ENERGY>
-2.3135

> <PUBCHEM_FEATURE_SELFOVERLAP>
10.149

> <PUBCHEM_SHAPE_FINGERPRINT>
11615756 256 18412550915737804299
13464514 151 18340780277540549742
13618510 140 18411980286303872881
14123250 116 18273495689147965091
14251745 187 18268704081524262416
15775835 57 18334575762925005600
17834072 32 18264491856900210092
18186145 218 18198906920384822551
18219364 16 18335423405223602689
20233049 118 17900827046062791974
20304884 271 18412262877993536858
20605781 55 18339636853792469618
20621476 13 18048304562128863101
20671657 1 18339079294007466302
21524375 3 18338508737672257986
21639500 275 18193828242022199743
21947302 44 18343301435716487710
22182937 141 18340497762896787219
23557571 272 18050293857767961447
23590187 32 18264494056039062012
2803657 2 17620199728254920194
3524813 1 18116716205525644287
8050 44 18410285904831673855

> <PUBCHEM_SHAPE_MULTIPOLES>
279.08
6.84
3.66
1.1
1.51
1.42
0
-4.7
-0.33
-1.05
0.15
0.18
-0.13
0.29

> <PUBCHEM_SHAPE_SELFOVERLAP>
468.914

> <PUBCHEM_SHAPE_VOLUME>
189.8

> <PUBCHEM_COORDINATE_TYPE>
2
5
10

$$$$
