15701285
  -OEChem-11232109153D

 24 23  0     1  0  0  0  0  0999 V2000
    0.4837    0.1544   -1.8471 O   0  0  0  0  0  0  0  0  0  0  0  0
   -1.5245   -1.3959   -0.5768 O   0  0  0  0  0  0  0  0  0  0  0  0
    1.2005    0.5757    0.4450 C   0  0  2  0  0  0  0  0  0  0  0  0
    2.4433   -0.3296    0.4955 C   0  0  0  0  0  0  0  0  0  0  0  0
    0.2337    0.1451   -0.6484 C   0  0  0  0  0  0  0  0  0  0  0  0
    1.6141    2.0234    0.1846 C   0  0  0  0  0  0  0  0  0  0  0  0
    2.0994   -1.7763    0.8284 C   0  0  0  0  0  0  0  0  0  0  0  0
   -1.1649   -0.2727   -0.2506 C   0  0  0  0  0  0  0  0  0  0  0  0
   -2.0038    0.7150    0.5245 C   0  0  0  0  0  0  0  0  0  0  0  0
   -3.3815    0.1609    0.8449 C   0  0  0  0  0  0  0  0  0  0  0  0
    0.6949    0.5249    1.4149 H   0  0  0  0  0  0  0  0  0  0  0  0
    2.9688   -0.3063   -0.4670 H   0  0  0  0  0  0  0  0  0  0  0  0
    3.1407    0.0489    1.2525 H   0  0  0  0  0  0  0  0  0  0  0  0
    2.1515    2.1235   -0.7650 H   0  0  0  0  0  0  0  0  0  0  0  0
    2.2647    2.3926    0.9842 H   0  0  0  0  0  0  0  0  0  0  0  0
    0.7351    2.6755    0.1359 H   0  0  0  0  0  0  0  0  0  0  0  0
    1.5627   -1.8424    1.7801 H   0  0  0  0  0  0  0  0  0  0  0  0
    3.0154   -2.3696    0.9140 H   0  0  0  0  0  0  0  0  0  0  0  0
    1.4797   -2.2309    0.0496 H   0  0  0  0  0  0  0  0  0  0  0  0
   -1.4962    0.9649    1.4601 H   0  0  0  0  0  0  0  0  0  0  0  0
   -2.1037    1.6248   -0.0764 H   0  0  0  0  0  0  0  0  0  0  0  0
   -3.3086   -0.7467    1.4533 H   0  0  0  0  0  0  0  0  0  0  0  0
   -3.9266   -0.0921   -0.0706 H   0  0  0  0  0  0  0  0  0  0  0  0
   -3.9691    0.8986    1.3998 H   0  0  0  0  0  0  0  0  0  0  0  0
  1  5  2  0  0  0  0
  2  8  2  0  0  0  0
  3  4  1  0  0  0  0
  3  5  1  0  0  0  0
  3  6  1  0  0  0  0
  3 11  1  0  0  0  0
  4  7  1  0  0  0  0
  4 12  1  0  0  0  0
  4 13  1  0  0  0  0
  5  8  1  0  0  0  0
  6 14  1  0  0  0  0
  6 15  1  0  0  0  0
  6 16  1  0  0  0  0
  7 17  1  0  0  0  0
  7 18  1  0  0  0  0
  7 19  1  0  0  0  0
  8  9  1  0  0  0  0
  9 10  1  0  0  0  0
  9 20  1  0  0  0  0
  9 21  1  0  0  0  0
 10 22  1  0  0  0  0
 10 23  1  0  0  0  0
 10 24  1  0  0  0  0
M  END
> <PUBCHEM_COMPOUND_CID>
15701285

> <PUBCHEM_CONFORMER_RMSD>
0.6

> <PUBCHEM_CONFORMER_DIVERSEORDER>
1
162
177
93
35
25
55
65
180
143
8
152
168
172
80
140
40
154
31
98
32
179
156
119
137
130
5
167
41
67
117
36
63
153
53
62
14
54
64
43
112
166
125
22
42
23
69
149
118
47
114
82
108
158
34
10
122
9
79
181
45
164
84
39
19
105
173
150
111
126
83
165
77
110
18
91
131
121
133
89
160
87
170
78
66
52
46
21
28
145
163
159
142
171
155
16
147
59
148
115
182
2
75
57
49
61
146
17
151
20
30
72
103
44
144
136
175
124
29
106
74
157
128
88
176
161
139
100
12
134
141
107
109
95
26
127
94
81
116
86
7
102
96
6
123
51
73
85
132
76
48
135
33
104
174
70
58
92
15
90
129
56
37
68
13
38
178
120
138
97
4
27
71
24
101
11
113
99
3
169
50
60

> <PUBCHEM_MMFF94_PARTIAL_CHARGES>
6
1 -0.57
2 -0.57
3 0.06
5 0.51
8 0.51
9 0.06

> <PUBCHEM_EFFECTIVE_ROTOR_COUNT>
4

> <PUBCHEM_PHARMACOPHORE_FEATURES>
5
1 1 acceptor
1 10 hydrophobe
1 2 acceptor
1 6 hydrophobe
1 7 hydrophobe

> <PUBCHEM_HEAVY_ATOM_COUNT>
10

> <PUBCHEM_ATOM_DEF_STEREO_COUNT>
0

> <PUBCHEM_ATOM_UDEF_STEREO_COUNT>
1

> <PUBCHEM_BOND_DEF_STEREO_COUNT>
0

> <PUBCHEM_BOND_UDEF_STEREO_COUNT>
0

> <PUBCHEM_ISOTOPIC_ATOM_COUNT>
0

> <PUBCHEM_COMPONENT_COUNT>
1

> <PUBCHEM_CACTVS_TAUTO_COUNT>
21

> <PUBCHEM_CONFORMER_ID>
00EF952500000001

> <PUBCHEM_MMFF94_ENERGY>
7.819

> <PUBCHEM_FEATURE_SELFOVERLAP>
25.376

> <PUBCHEM_SHAPE_FINGERPRINT>
12932764 1 18408326609507612781
14390081 3 14405186136454079227
16945 1 18409438181218855000
20379382 53 18261387871260940476
20653091 64 18341603875889037106
21040471 1 16415481592215256340
21061003 4 18190998172275228944
21922407 69 18195796599273282466
230 275 15626230082724632985
23235685 24 17132121229533076041
23552423 10 18266733756586924399
29004967 10 16877661253590527760
5084963 1 17845920884134879865

> <PUBCHEM_SHAPE_MULTIPOLES>
194.06
4.11
1.63
1.15
2.5
0.11
0.42
-0.48
-1.67
-1.12
-0.25
0.02
-0.05
-0.43

> <PUBCHEM_SHAPE_SELFOVERLAP>
361.664

> <PUBCHEM_SHAPE_VOLUME>
122.2

> <PUBCHEM_COORDINATE_TYPE>
2
5
10

$$$$
