157342
  -OEChem-11232109063D

 35 37  0     1  0  0  0  0  0999 V2000
    2.1105   -0.0184    0.2632 O   0  0  0  0  0  0  0  0  0  0  0  0
    1.0859    0.0014   -1.8072 O   0  0  0  0  0  0  0  0  0  0  0  0
   -0.2118    0.2940    0.2059 C   0  0  2  0  0  0  0  0  0  0  0  0
   -1.4570    0.4985   -0.6977 C   0  0  1  0  0  0  0  0  0  0  0  0
   -0.6055   -0.9439    1.0517 C   0  0  1  0  0  0  0  0  0  0  0  0
   -2.4127   -0.6218   -0.2255 C   0  0  2  0  0  0  0  0  0  0  0  0
   -2.1088   -0.7258    1.2725 C   0  0  0  0  0  0  0  0  0  0  0  0
   -0.6486   -2.2130    0.1722 C   0  0  0  0  0  0  0  0  0  0  0  0
   -1.8681   -1.9704   -0.7320 C   0  0  0  0  0  0  0  0  0  0  0  0
   -0.0579    1.5975    1.0056 C   0  0  0  0  0  0  0  0  0  0  0  0
   -1.9596    1.9168   -0.4096 C   0  0  0  0  0  0  0  0  0  0  0  0
   -0.7448    2.6466    0.1403 C   0  0  0  0  0  0  0  0  0  0  0  0
    1.0486    0.0770   -0.5865 C   0  0  0  0  0  0  0  0  0  0  0  0
    3.3810   -0.2275   -0.3614 C   0  0  0  0  0  0  0  0  0  0  0  0
    4.4487   -0.3110    0.7084 C   0  0  0  0  0  0  0  0  0  0  0  0
   -1.2554    0.4044   -1.7704 H   0  0  0  0  0  0  0  0  0  0  0  0
   -0.0179   -1.0699    1.9642 H   0  0  0  0  0  0  0  0  0  0  0  0
   -3.4606   -0.4512   -0.4813 H   0  0  0  0  0  0  0  0  0  0  0  0
   -2.3522    0.1780    1.8367 H   0  0  0  0  0  0  0  0  0  0  0  0
   -2.6011   -1.5800    1.7509 H   0  0  0  0  0  0  0  0  0  0  0  0
   -0.8184   -3.1006    0.7937 H   0  0  0  0  0  0  0  0  0  0  0  0
    0.2658   -2.3866   -0.4014 H   0  0  0  0  0  0  0  0  0  0  0  0
   -1.5958   -1.9427   -1.7918 H   0  0  0  0  0  0  0  0  0  0  0  0
   -2.6057   -2.7684   -0.5901 H   0  0  0  0  0  0  0  0  0  0  0  0
    0.9754    1.8948    1.2105 H   0  0  0  0  0  0  0  0  0  0  0  0
   -0.5633    1.5352    1.9763 H   0  0  0  0  0  0  0  0  0  0  0  0
   -2.7702    1.9197    0.3279 H   0  0  0  0  0  0  0  0  0  0  0  0
   -2.3433    2.3999   -1.3139 H   0  0  0  0  0  0  0  0  0  0  0  0
   -0.0847    2.9557   -0.6787 H   0  0  0  0  0  0  0  0  0  0  0  0
   -1.0212    3.5378    0.7111 H   0  0  0  0  0  0  0  0  0  0  0  0
    3.3565   -1.1614   -0.9340 H   0  0  0  0  0  0  0  0  0  0  0  0
    3.5976    0.6078   -1.0365 H   0  0  0  0  0  0  0  0  0  0  0  0
    5.4354   -0.4710    0.2647 H   0  0  0  0  0  0  0  0  0  0  0  0
    4.4724    0.6091    1.3015 H   0  0  0  0  0  0  0  0  0  0  0  0
    4.2355   -1.1309    1.4021 H   0  0  0  0  0  0  0  0  0  0  0  0
  1 13  1  0  0  0  0
  1 14  1  0  0  0  0
  2 13  2  0  0  0  0
  3  4  1  0  0  0  0
  3  5  1  0  0  0  0
  3 10  1  0  0  0  0
  3 13  1  0  0  0  0
  4  6  1  0  0  0  0
  4 11  1  0  0  0  0
  4 16  1  0  0  0  0
  5  7  1  0  0  0  0
  5  8  1  0  0  0  0
  5 17  1  0  0  0  0
  6  7  1  0  0  0  0
  6  9  1  0  0  0  0
  6 18  1  0  0  0  0
  7 19  1  0  0  0  0
  7 20  1  0  0  0  0
  8  9  1  0  0  0  0
  8 21  1  0  0  0  0
  8 22  1  0  0  0  0
  9 23  1  0  0  0  0
  9 24  1  0  0  0  0
 10 12  1  0  0  0  0
 10 25  1  0  0  0  0
 10 26  1  0  0  0  0
 11 12  1  0  0  0  0
 11 27  1  0  0  0  0
 11 28  1  0  0  0  0
 12 29  1  0  0  0  0
 12 30  1  0  0  0  0
 14 15  1  0  0  0  0
 14 31  1  0  0  0  0
 14 32  1  0  0  0  0
 15 33  1  0  0  0  0
 15 34  1  0  0  0  0
 15 35  1  0  0  0  0
M  END
> <PUBCHEM_COMPOUND_CID>
157342

> <PUBCHEM_CONFORMER_RMSD>
0.6

> <PUBCHEM_CONFORMER_DIVERSEORDER>
1
3
10
12
9
11
13
7
2
8
4
6
5

> <PUBCHEM_MMFF94_PARTIAL_CHARGES>
5
1 -0.43
13 0.66
14 0.28
2 -0.57
3 0.06

> <PUBCHEM_EFFECTIVE_ROTOR_COUNT>
4.2

> <PUBCHEM_PHARMACOPHORE_FEATURES>
3
1 2 acceptor
5 3 4 10 11 12 rings
7 3 4 5 6 7 8 9 rings

> <PUBCHEM_HEAVY_ATOM_COUNT>
15

> <PUBCHEM_ATOM_DEF_STEREO_COUNT>
4

> <PUBCHEM_ATOM_UDEF_STEREO_COUNT>
0

> <PUBCHEM_BOND_DEF_STEREO_COUNT>
0

> <PUBCHEM_BOND_UDEF_STEREO_COUNT>
0

> <PUBCHEM_ISOTOPIC_ATOM_COUNT>
0

> <PUBCHEM_COMPONENT_COUNT>
1

> <PUBCHEM_CACTVS_TAUTO_COUNT>
1

> <PUBCHEM_CONFORMER_ID>
0002669E00000001

> <PUBCHEM_MMFF94_ENERGY>
46.5428

> <PUBCHEM_FEATURE_SELFOVERLAP>
15.287

> <PUBCHEM_SHAPE_FINGERPRINT>
11315181 36 18113893854679195450
12138202 97 18268423547145428716
12423570 1 16089190337215650513
12716758 59 18269558234681803254
13024252 1 17894631448252742467
13296909 8 18408318865882115988
14614273 12 18189054192372294653
14713566 1 18260819380467254945
14817 1 13770758980747191661
16945 1 18042428879553607579
19837323 101 18197224646056230729
19868273 325 18411698828665215492
20510252 161 18341050735667378248
20524608 308 18340486647515948750
20871998 184 18411145709733666199
21296965 67 18337674246985332755
21501502 16 18125724727693907769
21524375 3 17901664869343171265
22344851 262 17604432886131486900
22344851 341 17827644651819040299
2306618 200 18060137609466977298
23402539 116 18271513239523466189
23419403 2 16985998436604588875
23559900 14 18270390604371984538
241688 4 15313221834352859763
2748010 2 18049143751762366517
369184 2 18272655640452079498
5706482 22 18190457147512902288
81228 2 18269012945475849136

> <PUBCHEM_SHAPE_MULTIPOLES>
296.95
4.58
2.29
1.19
7.22
0.68
-0.07
-0.96
0.37
-1.67
0.07
-0.04
-0.09
0.05

> <PUBCHEM_SHAPE_SELFOVERLAP>
639.187

> <PUBCHEM_SHAPE_VOLUME>
171

> <PUBCHEM_COORDINATE_TYPE>
2
5
10

$$$$
