15755823
  -OEChem-11232109143D

 22 21  0     0  0  0  0  0  0999 V2000
   -5.3608   -0.3092   -0.1055 O   0  0  0  0  0  0  0  0  0  0  0  0
    4.4125    0.2543   -0.3426 C   0  0  0  0  0  0  0  0  0  0  0  0
    3.0524    0.5708    0.2069 C   0  0  0  0  0  0  0  0  0  0  0  0
    5.0038   -0.9813    0.3181 C   0  0  0  0  0  0  0  0  0  0  0  0
    1.9123    0.0844   -0.3059 C   0  0  0  0  0  0  0  0  0  0  0  0
    0.6064    0.4014    0.2283 C   0  0  0  0  0  0  0  0  0  0  0  0
   -0.5323   -0.0867   -0.2868 C   0  0  0  0  0  0  0  0  0  0  0  0
   -1.8389    0.2307    0.2476 C   0  0  0  0  0  0  0  0  0  0  0  0
   -2.9712   -0.2603   -0.2720 C   0  0  0  0  0  0  0  0  0  0  0  0
   -4.2840    0.0960    0.3120 C   0  0  0  0  0  0  0  0  0  0  0  0
    4.3584    0.0959   -1.4264 H   0  0  0  0  0  0  0  0  0  0  0  0
    5.0713    1.1157   -0.1853 H   0  0  0  0  0  0  0  0  0  0  0  0
    3.0229    1.2232    1.0768 H   0  0  0  0  0  0  0  0  0  0  0  0
    6.0020   -1.1828   -0.0840 H   0  0  0  0  0  0  0  0  0  0  0  0
    5.0972   -0.8449    1.4008 H   0  0  0  0  0  0  0  0  0  0  0  0
    4.3830   -1.8654    0.1378 H   0  0  0  0  0  0  0  0  0  0  0  0
    1.9539   -0.5753   -1.1690 H   0  0  0  0  0  0  0  0  0  0  0  0
    0.5723    1.0678    1.0873 H   0  0  0  0  0  0  0  0  0  0  0  0
   -0.4982   -0.7534   -1.1457 H   0  0  0  0  0  0  0  0  0  0  0  0
   -1.8761    0.8971    1.1058 H   0  0  0  0  0  0  0  0  0  0  0  0
   -2.9787   -0.9276   -1.1272 H   0  0  0  0  0  0  0  0  0  0  0  0
   -4.2400    0.7759    1.1802 H   0  0  0  0  0  0  0  0  0  0  0  0
  1 10  2  0  0  0  0
  2  3  1  0  0  0  0
  2  4  1  0  0  0  0
  2 11  1  0  0  0  0
  2 12  1  0  0  0  0
  3  5  2  0  0  0  0
  3 13  1  0  0  0  0
  4 14  1  0  0  0  0
  4 15  1  0  0  0  0
  4 16  1  0  0  0  0
  5  6  1  0  0  0  0
  5 17  1  0  0  0  0
  6  7  2  0  0  0  0
  6 18  1  0  0  0  0
  7  8  1  0  0  0  0
  7 19  1  0  0  0  0
  8  9  2  0  0  0  0
  8 20  1  0  0  0  0
  9 10  1  0  0  0  0
  9 21  1  0  0  0  0
 10 22  1  0  0  0  0
M  END
> <PUBCHEM_COMPOUND_CID>
15755823

> <PUBCHEM_CONFORMER_RMSD>
0.6

> <PUBCHEM_CONFORMER_DIVERSEORDER>
1
3
11
9
5
4
8
14
2
7
6
12
10
13

> <PUBCHEM_MMFF94_PARTIAL_CHARGES>
16
1 -0.57
10 0.5
13 0.15
17 0.15
18 0.15
19 0.15
2 0.14
20 0.15
21 0.15
22 0.06
3 -0.29
5 -0.15
6 -0.15
7 -0.15
8 -0.15
9 -0.14

> <PUBCHEM_EFFECTIVE_ROTOR_COUNT>
4

> <PUBCHEM_PHARMACOPHORE_FEATURES>
2
1 1 acceptor
1 4 hydrophobe

> <PUBCHEM_HEAVY_ATOM_COUNT>
10

> <PUBCHEM_ATOM_DEF_STEREO_COUNT>
0

> <PUBCHEM_ATOM_UDEF_STEREO_COUNT>
0

> <PUBCHEM_BOND_DEF_STEREO_COUNT>
3

> <PUBCHEM_BOND_UDEF_STEREO_COUNT>
0

> <PUBCHEM_ISOTOPIC_ATOM_COUNT>
0

> <PUBCHEM_COMPONENT_COUNT>
1

> <PUBCHEM_CACTVS_TAUTO_COUNT>
1

> <PUBCHEM_CONFORMER_ID>
00F06A2F00000001

> <PUBCHEM_MMFF94_ENERGY>
5.1644

> <PUBCHEM_FEATURE_SELFOVERLAP>
10.148

> <PUBCHEM_SHAPE_FINGERPRINT>
11062470 55 10087642597996758452
11401426 45 14979954765963405769
114248 4 9367344834027573501
13690532 89 18408604755821274402
14123238 8 8430314636515588675
14251718 22 10665235855914218185
15242439 84 16515405174656300977
17834076 25 18410294717793211893
20645477 70 17968093076270345130
20719005 15 18411138038916761772
20767249 13 17489586762058828341
20828058 44 17203888591266642719
22485316 2 18410291441049793082
23402539 116 17846774101269385229
23402655 69 12613021808589793251
366044 4 17346881160706443183
42 15 18413672396302686374
42788 4 18333732420511313429
522135 26 18113900464280448852
57483677 66 18261109690339769955

> <PUBCHEM_SHAPE_MULTIPOLES>
199.93
11.83
0.78
0.68
2.5
0.06
0
2.16
0.37
-0.57
0.04
-0.09
0
-0.22

> <PUBCHEM_SHAPE_SELFOVERLAP>
372.452

> <PUBCHEM_SHAPE_VOLUME>
124.4

> <PUBCHEM_COORDINATE_TYPE>
2
5
10

$$$$
