15775373
  -OEChem-11232108543D

 20 20  0     1  0  0  0  0  0999 V2000
   -1.2163    0.8739   -1.1607 O   0  0  0  0  0  0  0  0  0  0  0  0
    0.4987    0.9963    0.9236 N   0  0  0  0  0  0  0  0  0  0  0  0
   -0.4196   -0.1255    0.8530 C   0  0  2  0  0  0  0  0  0  0  0  0
    0.3435   -1.4139    0.5131 C   0  0  0  0  0  0  0  0  0  0  0  0
    1.3396   -1.2417   -0.6503 C   0  0  0  0  0  0  0  0  0  0  0  0
   -1.4665    0.1874   -0.1713 C   0  0  0  0  0  0  0  0  0  0  0  0
    2.1022    0.0515   -0.5720 C   0  0  0  0  0  0  0  0  0  0  0  0
    1.6573    1.0535    0.1963 C   0  0  0  0  0  0  0  0  0  0  0  0
   -2.8389   -0.3815    0.0682 C   0  0  0  0  0  0  0  0  0  0  0  0
   -0.9105   -0.2305    1.8270 H   0  0  0  0  0  0  0  0  0  0  0  0
   -0.3485   -2.2320    0.2816 H   0  0  0  0  0  0  0  0  0  0  0  0
    0.9099   -1.7236    1.4022 H   0  0  0  0  0  0  0  0  0  0  0  0
    0.8092   -1.2803   -1.6089 H   0  0  0  0  0  0  0  0  0  0  0  0
    2.0448   -2.0805   -0.6383 H   0  0  0  0  0  0  0  0  0  0  0  0
    0.2207    1.8338    1.4244 H   0  0  0  0  0  0  0  0  0  0  0  0
    3.0122    0.1634   -1.1512 H   0  0  0  0  0  0  0  0  0  0  0  0
    2.1828    1.9962    0.2811 H   0  0  0  0  0  0  0  0  0  0  0  0
   -2.7831   -1.4708    0.1305 H   0  0  0  0  0  0  0  0  0  0  0  0
   -3.2506    0.0293    0.9934 H   0  0  0  0  0  0  0  0  0  0  0  0
   -3.4981   -0.1111   -0.7614 H   0  0  0  0  0  0  0  0  0  0  0  0
  1  6  2  0  0  0  0
  2  3  1  0  0  0  0
  2  8  1  0  0  0  0
  2 15  1  0  0  0  0
  3  4  1  0  0  0  0
  3  6  1  0  0  0  0
  3 10  1  0  0  0  0
  4  5  1  0  0  0  0
  4 11  1  0  0  0  0
  4 12  1  0  0  0  0
  5  7  1  0  0  0  0
  5 13  1  0  0  0  0
  5 14  1  0  0  0  0
  6  9  1  0  0  0  0
  7  8  2  0  0  0  0
  7 16  1  0  0  0  0
  8 17  1  0  0  0  0
  9 18  1  0  0  0  0
  9 19  1  0  0  0  0
  9 20  1  0  0  0  0
M  END
> <PUBCHEM_COMPOUND_CID>
15775373

> <PUBCHEM_CONFORMER_RMSD>
0.4

> <PUBCHEM_CONFORMER_DIVERSEORDER>
1
11
13
5
6
12
4
2
16
7
15
8
3
10
9
14

> <PUBCHEM_MMFF94_PARTIAL_CHARGES>
11
1 -0.57
15 0.4
16 0.15
17 0.15
2 -0.87
3 0.43
5 0.14
6 0.45
7 -0.29
8 -0.05
9 0.06

> <PUBCHEM_EFFECTIVE_ROTOR_COUNT>
1.8

> <PUBCHEM_PHARMACOPHORE_FEATURES>
4
1 1 acceptor
1 2 cation
1 2 donor
6 2 3 4 5 7 8 rings

> <PUBCHEM_HEAVY_ATOM_COUNT>
9

> <PUBCHEM_ATOM_DEF_STEREO_COUNT>
0

> <PUBCHEM_ATOM_UDEF_STEREO_COUNT>
1

> <PUBCHEM_BOND_DEF_STEREO_COUNT>
0

> <PUBCHEM_BOND_UDEF_STEREO_COUNT>
0

> <PUBCHEM_ISOTOPIC_ATOM_COUNT>
0

> <PUBCHEM_COMPONENT_COUNT>
1

> <PUBCHEM_CACTVS_TAUTO_COUNT>
3

> <PUBCHEM_CONFORMER_ID>
00F0B68D00000001

> <PUBCHEM_MMFF94_ENERGY>
11.5788

> <PUBCHEM_FEATURE_SELFOVERLAP>
20.297

> <PUBCHEM_SHAPE_FINGERPRINT>
12423570 1 17107098775883596794
12897270 3 18187365419821305623
16945 1 18342465871245605203
18185500 45 17836935494676718658
21040471 1 18263361541697941178
23235685 24 18271242841172654504
23552333 60 16702308957338895066
29004967 10 17917713487127585474
5084963 1 18040436581326317006

> <PUBCHEM_SHAPE_MULTIPOLES>
174.37
3.04
1.32
1
1.42
0.23
-0.04
-0.02
-0.51
-0.46
0.05
0.02
-0.08
0.28

> <PUBCHEM_SHAPE_SELFOVERLAP>
345.836

> <PUBCHEM_SHAPE_VOLUME>
102.4

> <PUBCHEM_COORDINATE_TYPE>
2
5
10

$$$$
