15801179
  -OEChem-11232108473D

 17 17  0     1  0  0  0  0  0999 V2000
   -1.7144   -1.1866    0.4910 O   0  0  0  0  0  0  0  0  0  0  0  0
    0.7471   -1.1060   -0.3324 N   0  0  0  0  0  0  0  0  0  0  0  0
   -0.0222    0.1388   -0.5316 C   0  0  2  0  0  0  0  0  0  0  0  0
    0.7086    1.2143    0.2548 C   0  0  0  0  0  0  0  0  0  0  0  0
    2.1432    0.7461    0.2098 C   0  0  0  0  0  0  0  0  0  0  0  0
    1.9196   -0.7195    0.0564 C   0  0  0  0  0  0  0  0  0  0  0  0
   -1.3993   -0.1097   -0.0131 C   0  0  0  0  0  0  0  0  0  0  0  0
   -2.3828    1.0226   -0.1350 C   0  0  0  0  0  0  0  0  0  0  0  0
   -0.0697    0.3646   -1.6028 H   0  0  0  0  0  0  0  0  0  0  0  0
    0.3599    1.2588    1.2945 H   0  0  0  0  0  0  0  0  0  0  0  0
    0.5809    2.2116   -0.1772 H   0  0  0  0  0  0  0  0  0  0  0  0
    2.6945    0.9692    1.1254 H   0  0  0  0  0  0  0  0  0  0  0  0
    2.6919    1.1196   -0.6590 H   0  0  0  0  0  0  0  0  0  0  0  0
    2.7416   -1.4250    0.2443 H   0  0  0  0  0  0  0  0  0  0  0  0
   -2.0958    1.8405    0.5299 H   0  0  0  0  0  0  0  0  0  0  0  0
   -2.4169    1.3716   -1.1701 H   0  0  0  0  0  0  0  0  0  0  0  0
   -3.3802    0.6723    0.1456 H   0  0  0  0  0  0  0  0  0  0  0  0
  1  7  2  0  0  0  0
  2  3  1  0  0  0  0
  2  6  2  0  0  0  0
  3  4  1  0  0  0  0
  3  7  1  0  0  0  0
  3  9  1  0  0  0  0
  4  5  1  0  0  0  0
  4 10  1  0  0  0  0
  4 11  1  0  0  0  0
  5  6  1  0  0  0  0
  5 12  1  0  0  0  0
  5 13  1  0  0  0  0
  6 14  1  0  0  0  0
  7  8  1  0  0  0  0
  8 15  1  0  0  0  0
  8 16  1  0  0  0  0
  8 17  1  0  0  0  0
M  END
> <PUBCHEM_COMPOUND_CID>
15801179

> <PUBCHEM_CONFORMER_RMSD>
0.4

> <PUBCHEM_CONFORMER_DIVERSEORDER>
1
7
3
2
8
4
6
10
9
5

> <PUBCHEM_MMFF94_PARTIAL_CHARGES>
8
1 -0.57
14 0.06
2 -0.7
3 0.31
5 0.06
6 0.33
7 0.45
8 0.06

> <PUBCHEM_EFFECTIVE_ROTOR_COUNT>
1.6

> <PUBCHEM_PHARMACOPHORE_FEATURES>
3
1 1 acceptor
1 2 acceptor
5 2 3 4 5 6 rings

> <PUBCHEM_HEAVY_ATOM_COUNT>
8

> <PUBCHEM_ATOM_DEF_STEREO_COUNT>
0

> <PUBCHEM_ATOM_UDEF_STEREO_COUNT>
1

> <PUBCHEM_BOND_DEF_STEREO_COUNT>
0

> <PUBCHEM_BOND_UDEF_STEREO_COUNT>
0

> <PUBCHEM_ISOTOPIC_ATOM_COUNT>
0

> <PUBCHEM_COMPONENT_COUNT>
1

> <PUBCHEM_CACTVS_TAUTO_COUNT>
3

> <PUBCHEM_CONFORMER_ID>
00F11B5B00000001

> <PUBCHEM_MMFF94_ENERGY>
10.7587

> <PUBCHEM_FEATURE_SELFOVERLAP>
15.235

> <PUBCHEM_SHAPE_FINGERPRINT>
14390081 3 18273490186889066849
20096714 4 18200871889302503524
21040471 1 18341329010888152324
23552423 10 18187087256216933230
24536 1 18261382399256223573
29004967 10 18411983559311461216
5084963 1 17845093059116086472

> <PUBCHEM_SHAPE_MULTIPOLES>
153.79
3.13
1.33
0.68
0.6
0
-0.01
-0.36
0.19
0.02
0.09
0.02
0.01
0.22

> <PUBCHEM_SHAPE_SELFOVERLAP>
307.102

> <PUBCHEM_SHAPE_VOLUME>
92.8

> <PUBCHEM_COORDINATE_TYPE>
2
5
10

$$$$
