1585264
  -OEChem-11232109213D

 26 26  0     0  0  0  0  0  0999 V2000
    5.5487   -0.5043   -0.1871 N   0  0  0  0  0  0  0  0  0  0  0  0
   -0.2462    0.3212   -0.6485 C   0  0  0  0  0  0  0  0  0  0  0  0
    0.6753    0.2146    0.5748 C   0  0  0  0  0  0  0  0  0  0  0  0
   -1.7012    0.0898   -0.3238 C   0  0  0  0  0  0  0  0  0  0  0  0
    2.1535    0.3184    0.2473 C   0  0  0  0  0  0  0  0  0  0  0  0
   -2.2161   -1.1960   -0.3861 C   0  0  0  0  0  0  0  0  0  0  0  0
   -2.4987    1.1668    0.0320 C   0  0  0  0  0  0  0  0  0  0  0  0
    2.5942    1.6313   -0.3462 C   0  0  0  0  0  0  0  0  0  0  0  0
   -3.5613   -1.4100   -0.0857 C   0  0  0  0  0  0  0  0  0  0  0  0
   -3.8439    0.9526    0.3325 C   0  0  0  0  0  0  0  0  0  0  0  0
    3.0467   -0.6726    0.4274 C   0  0  0  0  0  0  0  0  0  0  0  0
   -4.3751   -0.3359    0.2737 C   0  0  0  0  0  0  0  0  0  0  0  0
    4.4241   -0.5759    0.0898 C   0  0  0  0  0  0  0  0  0  0  0  0
   -0.1400    1.3079   -1.1179 H   0  0  0  0  0  0  0  0  0  0  0  0
    0.0692   -0.3994   -1.4153 H   0  0  0  0  0  0  0  0  0  0  0  0
    0.4194    0.9962    1.3020 H   0  0  0  0  0  0  0  0  0  0  0  0
    0.4841   -0.7385    1.0860 H   0  0  0  0  0  0  0  0  0  0  0  0
   -1.5897   -2.0392   -0.6628 H   0  0  0  0  0  0  0  0  0  0  0  0
   -2.0936    2.1734    0.0827 H   0  0  0  0  0  0  0  0  0  0  0  0
    2.2410    1.7191   -1.3787 H   0  0  0  0  0  0  0  0  0  0  0  0
    2.1698    2.4606    0.2310 H   0  0  0  0  0  0  0  0  0  0  0  0
    3.6764    1.7862   -0.3510 H   0  0  0  0  0  0  0  0  0  0  0  0
   -3.9749   -2.4133   -0.1308 H   0  0  0  0  0  0  0  0  0  0  0  0
   -4.4776    1.7889    0.6130 H   0  0  0  0  0  0  0  0  0  0  0  0
    2.7125   -1.6172    0.8464 H   0  0  0  0  0  0  0  0  0  0  0  0
   -5.4224   -0.5027    0.5079 H   0  0  0  0  0  0  0  0  0  0  0  0
  1 13  3  0  0  0  0
  2  3  1  0  0  0  0
  2  4  1  0  0  0  0
  2 14  1  0  0  0  0
  2 15  1  0  0  0  0
  3  5  1  0  0  0  0
  3 16  1  0  0  0  0
  3 17  1  0  0  0  0
  4  6  2  0  0  0  0
  4  7  1  0  0  0  0
  5  8  1  0  0  0  0
  5 11  2  0  0  0  0
  6  9  1  0  0  0  0
  6 18  1  0  0  0  0
  7 10  2  0  0  0  0
  7 19  1  0  0  0  0
  8 20  1  0  0  0  0
  8 21  1  0  0  0  0
  8 22  1  0  0  0  0
  9 12  2  0  0  0  0
  9 23  1  0  0  0  0
 10 12  1  0  0  0  0
 10 24  1  0  0  0  0
 11 13  1  0  0  0  0
 11 25  1  0  0  0  0
 12 26  1  0  0  0  0
M  END
> <PUBCHEM_COMPOUND_CID>
1585264

> <PUBCHEM_CONFORMER_RMSD>
0.6

> <PUBCHEM_CONFORMER_DIVERSEORDER>
2
12
14
10
13
6
4
5
11
3
7
1
9
15
8

> <PUBCHEM_MMFF94_PARTIAL_CHARGES>
19
1 -0.56
10 -0.15
11 -0.09
12 -0.15
13 0.49
18 0.15
19 0.15
2 0.14
23 0.15
24 0.15
25 0.15
26 0.15
3 0.14
4 -0.14
5 -0.28
6 -0.15
7 -0.15
8 0.14
9 -0.15

> <PUBCHEM_EFFECTIVE_ROTOR_COUNT>
3

> <PUBCHEM_PHARMACOPHORE_FEATURES>
3
1 1 acceptor
1 8 hydrophobe
6 4 6 7 9 10 12 rings

> <PUBCHEM_HEAVY_ATOM_COUNT>
13

> <PUBCHEM_ATOM_DEF_STEREO_COUNT>
0

> <PUBCHEM_ATOM_UDEF_STEREO_COUNT>
0

> <PUBCHEM_BOND_DEF_STEREO_COUNT>
1

> <PUBCHEM_BOND_UDEF_STEREO_COUNT>
0

> <PUBCHEM_ISOTOPIC_ATOM_COUNT>
0

> <PUBCHEM_COMPONENT_COUNT>
1

> <PUBCHEM_CACTVS_TAUTO_COUNT>
1

> <PUBCHEM_CONFORMER_ID>
0018307000000002

> <PUBCHEM_MMFF94_ENERGY>
24.4452

> <PUBCHEM_FEATURE_SELFOVERLAP>
15.223

> <PUBCHEM_SHAPE_FINGERPRINT>
10465860 250 17704351061119029016
10616163 171 18411136978150380927
10680689 15 17676486133741587013
11128504 68 17095533902693877366
114248 4 12612755713569144686
12251169 10 18412262830816987725
124424 183 17632572751824937593
12932764 1 17385709297049452929
13167823 11 18410011061215935342
13288520 33 18410013221652992142
13675066 3 17703785920990697218
14123238 8 18334295362164846522
14251731 8 18412545383783068860
14252887 29 17775008960302819078
17804303 29 18342739632672042273
17834072 33 18408608093322301340
17834074 16 18413392020579550022
17834076 25 11671780472874214544
18186145 218 17749381598404949832
19422 9 18336829783384521341
1986462 14 18410292505964201893
20279233 1 15913331303210276789
20645464 45 17703795821190969087
20671657 1 18117003380230463948
21267235 1 18408892849464154395
22485316 2 18335698317416373442
2255824 54 17967532411070304224
2297311 6 18201167584905479300
2306618 200 17918280831534216609
23402539 116 17846208939487012189
23532345 12 18272653454408833776
23559900 14 18340759446458560433
351380 180 9223225243964030886
42 15 18272088296852446984
4214541 1 18411699872279172777
441001 317 10953456323534459574
5104073 3 18340768233919190817
58051976 100 18409728473710910903
77779 3 18410856585583829072

> <PUBCHEM_SHAPE_MULTIPOLES>
262.55
10.38
1.37
0.74
7.26
0.13
0
-2.11
0.48
-0.45
-0.08
-0.02
0.02
-0.33

> <PUBCHEM_SHAPE_SELFOVERLAP>
531.781

> <PUBCHEM_SHAPE_VOLUME>
150.8

> <PUBCHEM_COORDINATE_TYPE>
2
5
10

$$$$
