15897831
  -OEChem-11232109123D

 34 34  0     0  0  0  0  0  0999 V2000
   -0.8930    1.4473   -0.2998 O   0  0  0  0  0  0  0  0  0  0  0  0
    1.5336    0.1051   -0.0176 C   0  0  0  0  0  0  0  0  0  0  0  0
    2.3958   -0.3791   -1.1922 C   0  0  0  0  0  0  0  0  0  0  0  0
    2.2804   -0.0666    1.3130 C   0  0  0  0  0  0  0  0  0  0  0  0
    3.7599    0.3078   -1.2125 C   0  0  0  0  0  0  0  0  0  0  0  0
    3.6450    0.6192    1.2875 C   0  0  0  0  0  0  0  0  0  0  0  0
    4.4937    0.1406    0.1141 C   0  0  0  0  0  0  0  0  0  0  0  0
    0.2192   -0.6156    0.0114 C   0  0  0  0  0  0  0  0  0  0  0  0
   -1.0133    0.2303   -0.1518 C   0  0  0  0  0  0  0  0  0  0  0  0
    0.1452   -1.9440    0.1735 C   0  0  0  0  0  0  0  0  0  0  0  0
   -2.3821   -0.4386   -0.1324 C   0  0  0  0  0  0  0  0  0  0  0  0
   -3.5224    0.5695   -0.2886 C   0  0  0  0  0  0  0  0  0  0  0  0
   -4.8589   -0.1105   -0.2599 C   0  0  0  0  0  0  0  0  0  0  0  0
   -5.8032    0.1345    0.6552 C   0  0  0  0  0  0  0  0  0  0  0  0
    1.3856    1.1827   -0.1588 H   0  0  0  0  0  0  0  0  0  0  0  0
    1.8820   -0.1820   -2.1416 H   0  0  0  0  0  0  0  0  0  0  0  0
    2.5599   -1.4629   -1.1428 H   0  0  0  0  0  0  0  0  0  0  0  0
    2.4357   -1.1276    1.5460 H   0  0  0  0  0  0  0  0  0  0  0  0
    1.6851    0.3517    2.1344 H   0  0  0  0  0  0  0  0  0  0  0  0
    3.6275    1.3759   -1.4248 H   0  0  0  0  0  0  0  0  0  0  0  0
    4.3684   -0.1053   -2.0249 H   0  0  0  0  0  0  0  0  0  0  0  0
    4.1729    0.4243    2.2279 H   0  0  0  0  0  0  0  0  0  0  0  0
    3.5062    1.7052    1.2192 H   0  0  0  0  0  0  0  0  0  0  0  0
    4.7525   -0.9156    0.2576 H   0  0  0  0  0  0  0  0  0  0  0  0
    5.4357    0.6998    0.0879 H   0  0  0  0  0  0  0  0  0  0  0  0
    1.0359   -2.5527    0.2909 H   0  0  0  0  0  0  0  0  0  0  0  0
   -0.7935   -2.4847    0.1964 H   0  0  0  0  0  0  0  0  0  0  0  0
   -2.4229   -1.1651   -0.9525 H   0  0  0  0  0  0  0  0  0  0  0  0
   -2.4954   -0.9654    0.8225 H   0  0  0  0  0  0  0  0  0  0  0  0
   -3.4216    1.1008   -1.2430 H   0  0  0  0  0  0  0  0  0  0  0  0
   -3.4559    1.3302    0.4994 H   0  0  0  0  0  0  0  0  0  0  0  0
   -5.0667   -0.8371   -1.0411 H   0  0  0  0  0  0  0  0  0  0  0  0
   -6.7529   -0.3880    0.6177 H   0  0  0  0  0  0  0  0  0  0  0  0
   -5.6484    0.8533    1.4521 H   0  0  0  0  0  0  0  0  0  0  0  0
  1  9  2  0  0  0  0
  2  3  1  0  0  0  0
  2  4  1  0  0  0  0
  2  8  1  0  0  0  0
  2 15  1  0  0  0  0
  3  5  1  0  0  0  0
  3 16  1  0  0  0  0
  3 17  1  0  0  0  0
  4  6  1  0  0  0  0
  4 18  1  0  0  0  0
  4 19  1  0  0  0  0
  5  7  1  0  0  0  0
  5 20  1  0  0  0  0
  5 21  1  0  0  0  0
  6  7  1  0  0  0  0
  6 22  1  0  0  0  0
  6 23  1  0  0  0  0
  7 24  1  0  0  0  0
  7 25  1  0  0  0  0
  8  9  1  0  0  0  0
  8 10  2  0  0  0  0
  9 11  1  0  0  0  0
 10 26  1  0  0  0  0
 10 27  1  0  0  0  0
 11 12  1  0  0  0  0
 11 28  1  0  0  0  0
 11 29  1  0  0  0  0
 12 13  1  0  0  0  0
 12 30  1  0  0  0  0
 12 31  1  0  0  0  0
 13 14  2  0  0  0  0
 13 32  1  0  0  0  0
 14 33  1  0  0  0  0
 14 34  1  0  0  0  0
M  END
> <PUBCHEM_COMPOUND_CID>
15897831

> <PUBCHEM_CONFORMER_RMSD>
0.8

> <PUBCHEM_CONFORMER_DIVERSEORDER>
1
120
53
81
89
127
144
47
48
54
108
12
114
5
50
28
116
57
105
4
79
106
41
148
145
111
37
82
56
61
104
65
91
43
130
113
49
24
40
68
117
8
66
134
44
138
88
86
154
9
63
55
131
102
60
7
110
83
147
20
74
14
132
11
119
10
109
38
29
90
95
98
75
58
16
45
121
150
30
26
107
142
51
42
15
99
136
96
143
115
22
93
72
13
118
34
52
128
46
80
151
92
27
78
6
97
146
73
77
19
71
122
123
135
59
87
36
32
139
31
124
18
33
94
25
133
153
103
84
85
152
141
17
125
137
23
3
140
35
70
2
69
21
64
149
101
126
67
62
100
129
76
39
112

> <PUBCHEM_MMFF94_PARTIAL_CHARGES>
14
1 -0.57
10 -0.3
11 0.06
12 0.14
13 -0.29
14 -0.3
2 0.14
26 0.15
27 0.15
32 0.15
33 0.15
34 0.15
8 -0.12
9 0.49

> <PUBCHEM_EFFECTIVE_ROTOR_COUNT>
6.2

> <PUBCHEM_PHARMACOPHORE_FEATURES>
4
1 1 acceptor
1 10 hydrophobe
1 14 hydrophobe
6 2 3 4 5 6 7 rings

> <PUBCHEM_HEAVY_ATOM_COUNT>
14

> <PUBCHEM_ATOM_DEF_STEREO_COUNT>
0

> <PUBCHEM_ATOM_UDEF_STEREO_COUNT>
0

> <PUBCHEM_BOND_DEF_STEREO_COUNT>
0

> <PUBCHEM_BOND_UDEF_STEREO_COUNT>
0

> <PUBCHEM_ISOTOPIC_ATOM_COUNT>
0

> <PUBCHEM_COMPONENT_COUNT>
1

> <PUBCHEM_CACTVS_TAUTO_COUNT>
2

> <PUBCHEM_CONFORMER_ID>
00F294E700000001

> <PUBCHEM_MMFF94_ENERGY>
14.6499

> <PUBCHEM_FEATURE_SELFOVERLAP>
20.297

> <PUBCHEM_SHAPE_FINGERPRINT>
11287383 113 16988560238441261527
11471102 20 16343703244561670040
12236239 1 17385722495816172036
13167823 11 15646771202205000233
13538477 17 17676768781497687522
13760787 19 16660651790225142314
14123238 8 14851605483850498449
15048467 5 15626222429066498729
17834072 33 15936413364008199547
17834076 25 18412546509702673857
18186145 218 17846491530500780073
200 152 15574428821712657645
20279233 1 17989491839698553206
20645477 70 16056889004773640468
23048698 100 16515405157766640652
23402539 116 18342166795856886774
23402655 69 16056878048122235032
23536379 177 15698004024596133447
23557571 272 18342464694424995237
23559900 14 18343305894715201150
23590187 302 15339116849110044898
265663 24 16081085978730600481
366044 4 18410011048157220010
4047638 21 17917990590270615970
4072396 5 18113888343397527459
42 15 14418130699674765331
42788 4 16630527332530446325
465052 167 16370724803507949922
4990 188 17632860819244164326
522135 26 15267344015651258220
5374978 207 17531243967616842420
537710 114 18040719172921016165
633830 44 17989197179182598453
69090 78 17489863860279462855
7495541 125 16951137282538313709
77779 3 16200431381841053845
8272917 22 16370720388154858434

> <PUBCHEM_SHAPE_MULTIPOLES>
282.24
10.67
1.13
1.11
11.27
0.08
-0.18
1.78
1
-0.94
-0.11
-0.17
-0.16
0.48

> <PUBCHEM_SHAPE_SELFOVERLAP>
552.399

> <PUBCHEM_SHAPE_VOLUME>
168.4

> <PUBCHEM_COORDINATE_TYPE>
2
5
10

$$$$
