15984303
  -OEChem-11232109083D

 42 42  0     1  0  0  0  0  0999 V2000
   -3.6856   -0.9290    1.5021 O   0  0  0  0  0  0  0  0  0  0  0  0
    2.1103   -0.6047   -0.1293 C   0  0  0  0  0  0  0  0  0  0  0  0
    1.1589    0.5313    0.3632 C   0  0  1  0  0  0  0  0  0  0  0  0
    1.9684    1.8290    0.2183 C   0  0  0  0  0  0  0  0  0  0  0  0
    3.4632    0.0137    0.1782 C   0  0  0  0  0  0  0  0  0  0  0  0
    3.3715    1.3392    0.3550 C   0  0  0  0  0  0  0  0  0  0  0  0
    1.8469   -1.8983    0.6536 C   0  0  0  0  0  0  0  0  0  0  0  0
    2.0022   -0.8856   -1.6391 C   0  0  0  0  0  0  0  0  0  0  0  0
   -0.1824    0.6012   -0.2931 C   0  0  0  0  0  0  0  0  0  0  0  0
   -2.7579    0.5549   -0.1944 C   0  0  0  0  0  0  0  0  0  0  0  0
   -1.3420    0.4942    0.3749 C   0  0  0  0  0  0  0  0  0  0  0  0
    4.7246   -0.7776    0.2155 C   0  0  0  0  0  0  0  0  0  0  0  0
   -3.5259   -0.7758    0.0887 C   0  0  1  0  0  0  0  0  0  0  0  0
   -3.4789    1.7401    0.4838 C   0  0  0  0  0  0  0  0  0  0  0  0
   -2.7839    0.8205   -1.7194 C   0  0  0  0  0  0  0  0  0  0  0  0
   -2.8894   -2.0531   -0.4580 C   0  0  0  0  0  0  0  0  0  0  0  0
    1.0055    0.3891    1.4459 H   0  0  0  0  0  0  0  0  0  0  0  0
    1.7150    2.5392    1.0120 H   0  0  0  0  0  0  0  0  0  0  0  0
    1.8290    2.3187   -0.7518 H   0  0  0  0  0  0  0  0  0  0  0  0
    4.2108    1.9926    0.5471 H   0  0  0  0  0  0  0  0  0  0  0  0
    1.9989   -1.7563    1.7298 H   0  0  0  0  0  0  0  0  0  0  0  0
    0.8182   -2.2450    0.5048 H   0  0  0  0  0  0  0  0  0  0  0  0
    2.5164   -2.7038    0.3309 H   0  0  0  0  0  0  0  0  0  0  0  0
    2.1349    0.0246   -2.2353 H   0  0  0  0  0  0  0  0  0  0  0  0
    2.7659   -1.6020   -1.9638 H   0  0  0  0  0  0  0  0  0  0  0  0
    1.0297   -1.3195   -1.8974 H   0  0  0  0  0  0  0  0  0  0  0  0
   -0.1910    0.7740   -1.3647 H   0  0  0  0  0  0  0  0  0  0  0  0
   -1.2881    0.3370    1.4521 H   0  0  0  0  0  0  0  0  0  0  0  0
    5.5959   -0.1362    0.3851 H   0  0  0  0  0  0  0  0  0  0  0  0
    4.8802   -1.3040   -0.7309 H   0  0  0  0  0  0  0  0  0  0  0  0
    4.6940   -1.5144    1.0238 H   0  0  0  0  0  0  0  0  0  0  0  0
   -4.5378   -0.6919   -0.3281 H   0  0  0  0  0  0  0  0  0  0  0  0
   -2.9886    2.6922    0.2466 H   0  0  0  0  0  0  0  0  0  0  0  0
   -4.5201    1.8112    0.1484 H   0  0  0  0  0  0  0  0  0  0  0  0
   -3.4893    1.6443    1.5757 H   0  0  0  0  0  0  0  0  0  0  0  0
   -2.2471    0.0518   -2.2850 H   0  0  0  0  0  0  0  0  0  0  0  0
   -2.3302    1.7883   -1.9646 H   0  0  0  0  0  0  0  0  0  0  0  0
   -3.8140    0.8434   -2.0944 H   0  0  0  0  0  0  0  0  0  0  0  0
   -3.5083   -2.9213   -0.2042 H   0  0  0  0  0  0  0  0  0  0  0  0
   -2.7806   -2.0245   -1.5450 H   0  0  0  0  0  0  0  0  0  0  0  0
   -1.9084   -2.2358   -0.0074 H   0  0  0  0  0  0  0  0  0  0  0  0
   -4.2283   -1.7216    1.6533 H   0  0  0  0  0  0  0  0  0  0  0  0
  1 13  1  0  0  0  0
  1 42  1  0  0  0  0
  2  3  1  0  0  0  0
  2  5  1  0  0  0  0
  2  7  1  0  0  0  0
  2  8  1  0  0  0  0
  3  4  1  0  0  0  0
  3  9  1  0  0  0  0
  3 17  1  0  0  0  0
  4  6  1  0  0  0  0
  4 18  1  0  0  0  0
  4 19  1  0  0  0  0
  5  6  2  0  0  0  0
  5 12  1  0  0  0  0
  6 20  1  0  0  0  0
  7 21  1  0  0  0  0
  7 22  1  0  0  0  0
  7 23  1  0  0  0  0
  8 24  1  0  0  0  0
  8 25  1  0  0  0  0
  8 26  1  0  0  0  0
  9 11  2  0  0  0  0
  9 27  1  0  0  0  0
 10 11  1  0  0  0  0
 10 13  1  0  0  0  0
 10 14  1  0  0  0  0
 10 15  1  0  0  0  0
 11 28  1  0  0  0  0
 12 29  1  0  0  0  0
 12 30  1  0  0  0  0
 12 31  1  0  0  0  0
 13 16  1  0  0  0  0
 13 32  1  0  0  0  0
 14 33  1  0  0  0  0
 14 34  1  0  0  0  0
 14 35  1  0  0  0  0
 15 36  1  0  0  0  0
 15 37  1  0  0  0  0
 15 38  1  0  0  0  0
 16 39  1  0  0  0  0
 16 40  1  0  0  0  0
 16 41  1  0  0  0  0
M  END
> <PUBCHEM_COMPOUND_CID>
15984303

> <PUBCHEM_CONFORMER_RMSD>
0.6

> <PUBCHEM_CONFORMER_DIVERSEORDER>
1
160
73
44
5
21
151
142
87
20
104
18
161
76
70
63
72
136
80
22
164
99
49
7
66
9
111
75
67
135
154
68
112
148
156
133
116
141
53
132
28
59
101
125
118
60
139
163
8
41
122
78
143
13
98
34
109
32
138
89
84
77
3
4
86
16
24
94
43
162
152
65
119
12
17
93
130
110
46
64
90
127
128
145
121
56
2
26
82
40
157
29
129
48
150
106
30
113
54
107
95
42
10
83
123
131
79
74
126
23
58
25
50
158
159
134
51
62
55
39
35
103
102
85
33
124
81
117
114
105
96
100
165
146
153
92
97
14
27
31
52
108
45
147
37
155
91
36
140
47
144
38
57
15
69
149
120
71
11
137
6
61
88
19
115

> <PUBCHEM_MMFF94_PARTIAL_CHARGES>
15
1 -0.68
10 0.14
11 -0.29
12 0.14
13 0.28
2 0.14
20 0.15
27 0.15
28 0.15
3 0.14
4 0.14
42 0.4
5 -0.28
6 -0.29
9 -0.29

> <PUBCHEM_EFFECTIVE_ROTOR_COUNT>
3.6

> <PUBCHEM_PHARMACOPHORE_FEATURES>
5
1 1 acceptor
1 1 donor
3 10 14 15 hydrophobe
3 2 7 8 hydrophobe
5 2 3 4 5 6 rings

> <PUBCHEM_HEAVY_ATOM_COUNT>
16

> <PUBCHEM_ATOM_DEF_STEREO_COUNT>
0

> <PUBCHEM_ATOM_UDEF_STEREO_COUNT>
2

> <PUBCHEM_BOND_DEF_STEREO_COUNT>
1

> <PUBCHEM_BOND_UDEF_STEREO_COUNT>
0

> <PUBCHEM_ISOTOPIC_ATOM_COUNT>
0

> <PUBCHEM_COMPONENT_COUNT>
1

> <PUBCHEM_CACTVS_TAUTO_COUNT>
1

> <PUBCHEM_CONFORMER_ID>
00F3E6AF00000001

> <PUBCHEM_MMFF94_ENERGY>
39.0716

> <PUBCHEM_FEATURE_SELFOVERLAP>
25.371

> <PUBCHEM_SHAPE_FINGERPRINT>
10616163 171 18342457058226356767
10680689 15 17167863036800462789
12500047 106 18042393656368668317
12507557 5 18411973676713461280
12932764 1 17968094183833525213
13296908 3 18411700980396358045
13675066 3 17703785912538023200
13705890 14 18335420175466237768
14144814 61 18343300340557700089
14252887 29 17917435285485666542
14289901 80 18339358668644643881
15309172 13 16630806616715159837
15375358 24 18131067082899607605
17834074 16 18410012139141859475
18186145 218 18334292041844124240
19050596 39 18272371987874202425
19107657 46 18411980243354245455
200 152 18200865266832101013
20279233 1 18272653424438709663
20281475 54 18334856074334863528
20442098 301 18272931652378245239
20645477 56 17749664078995189725
20645477 70 18272081665238423607
21730867 7 18187359909415064458
221490 88 18337113483433970290
23402539 116 18343295934438017608
23557571 272 17748821891347152733
23559900 14 18410281523875614616
26918003 58 18343862199483887857
2871803 45 18263069076148333583
3248919 1 17989200421909339037
5104073 3 18411697690599317680
58051976 100 18334012779091861343
58051976 378 18268427013083868068
74978 22 18340203003649435709
8809292 202 18334577992008134426
9709674 26 18272936020375868223

> <PUBCHEM_SHAPE_MULTIPOLES>
323.4
8.41
1.94
1.17
0.3
0.23
0.36
0.71
-0.89
-0.4
-0.16
-0.62
0.16
0.32

> <PUBCHEM_SHAPE_SELFOVERLAP>
643.191

> <PUBCHEM_SHAPE_VOLUME>
196.6

> <PUBCHEM_COORDINATE_TYPE>
2
5
10

$$$$
