160064
  -OEChem-11232109143D

 53 52  0     1  0  0  0  0  0999 V2000
    2.3517    1.3546   -0.6987 O   0  0  0  0  0  0  0  0  0  0  0  0
    2.2789    2.5012    1.3014 O   0  0  0  0  0  0  0  0  0  0  0  0
    2.4329   -0.7576    0.5133 C   0  0  1  0  0  0  0  0  0  0  0  0
    1.4221   -1.2998   -0.5191 C   0  0  0  0  0  0  0  0  0  0  0  0
    3.3437   -1.8400    1.1351 C   0  0  0  0  0  0  0  0  0  0  0  0
    3.2366    0.3923   -0.1161 C   0  0  0  0  0  0  0  0  0  0  0  0
    0.4662   -2.3519    0.0527 C   0  0  0  0  0  0  0  0  0  0  0  0
   -2.3596    1.4290   -0.4665 C   0  0  0  0  0  0  0  0  0  0  0  0
   -3.1864    0.8624    0.6918 C   0  0  0  0  0  0  0  0  0  0  0  0
   -1.0557    2.0535    0.0377 C   0  0  0  0  0  0  0  0  0  0  0  0
   -4.4776    0.1571    0.2368 C   0  0  0  0  0  0  0  0  0  0  0  0
   -0.2428    2.6490   -1.1162 C   0  0  0  0  0  0  0  0  0  0  0  0
   -0.5211   -2.8955   -0.9837 C   0  0  0  0  0  0  0  0  0  0  0  0
    1.0526    3.3055   -0.6395 C   0  0  0  0  0  0  0  0  0  0  0  0
    4.2104   -2.6041    0.1435 C   0  0  0  0  0  0  0  0  0  0  0  0
   -5.3143   -0.3467    1.4136 C   0  0  0  0  0  0  0  0  0  0  0  0
   -4.1312   -1.0123   -0.6882 C   0  0  0  0  0  0  0  0  0  0  0  0
    1.9497    2.3624    0.1313 C   0  0  0  0  0  0  0  0  0  0  0  0
   -1.4560   -3.9592   -0.4290 C   0  0  0  0  0  0  0  0  0  0  0  0
    1.8407   -0.3284    1.3334 H   0  0  0  0  0  0  0  0  0  0  0  0
    1.9544   -1.7178   -1.3820 H   0  0  0  0  0  0  0  0  0  0  0  0
    0.8057   -0.4819   -0.9099 H   0  0  0  0  0  0  0  0  0  0  0  0
    4.0036   -1.3586    1.8681 H   0  0  0  0  0  0  0  0  0  0  0  0
    2.7396   -2.5538    1.7059 H   0  0  0  0  0  0  0  0  0  0  0  0
    3.8624    0.0223   -0.9348 H   0  0  0  0  0  0  0  0  0  0  0  0
    3.9137    0.8553    0.6118 H   0  0  0  0  0  0  0  0  0  0  0  0
    1.0357   -3.1987    0.4503 H   0  0  0  0  0  0  0  0  0  0  0  0
   -0.0915   -1.9173    0.8913 H   0  0  0  0  0  0  0  0  0  0  0  0
   -2.0978    0.6417   -1.1801 H   0  0  0  0  0  0  0  0  0  0  0  0
   -2.9505    2.1784   -1.0063 H   0  0  0  0  0  0  0  0  0  0  0  0
   -2.5714    0.1590    1.2682 H   0  0  0  0  0  0  0  0  0  0  0  0
   -3.4490    1.6797    1.3754 H   0  0  0  0  0  0  0  0  0  0  0  0
   -1.2833    2.8403    0.7671 H   0  0  0  0  0  0  0  0  0  0  0  0
   -0.4715    1.2871    0.5599 H   0  0  0  0  0  0  0  0  0  0  0  0
   -5.0894    0.8727   -0.3269 H   0  0  0  0  0  0  0  0  0  0  0  0
   -0.8446    3.3995   -1.6425 H   0  0  0  0  0  0  0  0  0  0  0  0
   -0.0119    1.8602   -1.8424 H   0  0  0  0  0  0  0  0  0  0  0  0
   -1.1199   -2.0672   -1.3804 H   0  0  0  0  0  0  0  0  0  0  0  0
    0.0337   -3.3189   -1.8295 H   0  0  0  0  0  0  0  0  0  0  0  0
    0.8186    4.1536    0.0148 H   0  0  0  0  0  0  0  0  0  0  0  0
    1.6184    3.7074   -1.4875 H   0  0  0  0  0  0  0  0  0  0  0  0
    4.8261   -3.3355    0.6775 H   0  0  0  0  0  0  0  0  0  0  0  0
    3.6037   -3.1532   -0.5820 H   0  0  0  0  0  0  0  0  0  0  0  0
    4.8879   -1.9393   -0.3992 H   0  0  0  0  0  0  0  0  0  0  0  0
   -6.2410   -0.8137    1.0640 H   0  0  0  0  0  0  0  0  0  0  0  0
   -5.5857    0.4819    2.0760 H   0  0  0  0  0  0  0  0  0  0  0  0
   -4.7622   -1.0854    2.0045 H   0  0  0  0  0  0  0  0  0  0  0  0
   -3.4122   -1.6885   -0.2181 H   0  0  0  0  0  0  0  0  0  0  0  0
   -5.0291   -1.5942   -0.9252 H   0  0  0  0  0  0  0  0  0  0  0  0
   -3.7210   -0.6728   -1.6434 H   0  0  0  0  0  0  0  0  0  0  0  0
   -0.8917   -4.8362   -0.0965 H   0  0  0  0  0  0  0  0  0  0  0  0
   -2.0244   -3.5771    0.4244 H   0  0  0  0  0  0  0  0  0  0  0  0
   -2.1651   -4.2815   -1.1977 H   0  0  0  0  0  0  0  0  0  0  0  0
  1  6  1  0  0  0  0
  1 18  1  0  0  0  0
  2 18  2  0  0  0  0
  3  4  1  0  0  0  0
  3  5  1  0  0  0  0
  3  6  1  0  0  0  0
  3 20  1  0  0  0  0
  4  7  1  0  0  0  0
  4 21  1  0  0  0  0
  4 22  1  0  0  0  0
  5 15  1  0  0  0  0
  5 23  1  0  0  0  0
  5 24  1  0  0  0  0
  6 25  1  0  0  0  0
  6 26  1  0  0  0  0
  7 13  1  0  0  0  0
  7 27  1  0  0  0  0
  7 28  1  0  0  0  0
  8  9  1  0  0  0  0
  8 10  1  0  0  0  0
  8 29  1  0  0  0  0
  8 30  1  0  0  0  0
  9 11  1  0  0  0  0
  9 31  1  0  0  0  0
  9 32  1  0  0  0  0
 10 12  1  0  0  0  0
 10 33  1  0  0  0  0
 10 34  1  0  0  0  0
 11 16  1  0  0  0  0
 11 17  1  0  0  0  0
 11 35  1  0  0  0  0
 12 14  1  0  0  0  0
 12 36  1  0  0  0  0
 12 37  1  0  0  0  0
 13 19  1  0  0  0  0
 13 38  1  0  0  0  0
 13 39  1  0  0  0  0
 14 18  1  0  0  0  0
 14 40  1  0  0  0  0
 14 41  1  0  0  0  0
 15 42  1  0  0  0  0
 15 43  1  0  0  0  0
 15 44  1  0  0  0  0
 16 45  1  0  0  0  0
 16 46  1  0  0  0  0
 16 47  1  0  0  0  0
 17 48  1  0  0  0  0
 17 49  1  0  0  0  0
 17 50  1  0  0  0  0
 19 51  1  0  0  0  0
 19 52  1  0  0  0  0
 19 53  1  0  0  0  0
M  END
> <PUBCHEM_COMPOUND_CID>
160064

> <PUBCHEM_CONFORMER_RMSD>
1.4

> <PUBCHEM_CONFORMER_DIVERSEORDER>
2
1
34
42
15
31
23
4
39
25
47
22
33
28
46
41
17
27
36
53
35
13
19
50
10
5
21
44
18
7
8
12
37
29
38
40
43
20
45
14
52
30
49
26
9
32
6
51
24
48
3
16
11

> <PUBCHEM_MMFF94_PARTIAL_CHARGES>
5
1 -0.43
14 0.06
18 0.66
2 -0.57
6 0.28

> <PUBCHEM_EFFECTIVE_ROTOR_COUNT>
13

> <PUBCHEM_PHARMACOPHORE_FEATURES>
7
1 15 hydrophobe
1 19 hydrophobe
1 2 acceptor
3 10 12 14 hydrophobe
3 11 16 17 hydrophobe
3 8 9 11 hydrophobe
5 3 4 5 7 13 hydrophobe

> <PUBCHEM_HEAVY_ATOM_COUNT>
19

> <PUBCHEM_ATOM_DEF_STEREO_COUNT>
0

> <PUBCHEM_ATOM_UDEF_STEREO_COUNT>
1

> <PUBCHEM_BOND_DEF_STEREO_COUNT>
0

> <PUBCHEM_BOND_UDEF_STEREO_COUNT>
0

> <PUBCHEM_ISOTOPIC_ATOM_COUNT>
0

> <PUBCHEM_COMPONENT_COUNT>
1

> <PUBCHEM_CACTVS_TAUTO_COUNT>
1

> <PUBCHEM_CONFORMER_ID>
0002714000000002

> <PUBCHEM_MMFF94_ENERGY>
11.9671

> <PUBCHEM_FEATURE_SELFOVERLAP>
35.943

> <PUBCHEM_SHAPE_FINGERPRINT>
10064457 181 18199756993107570521
10708813 3 18267304429350551503
12596599 1 17916037762903629841
13140716 1 18051404369091806152
14117953 113 18196368118382941471
14178342 30 17908410708165953265
14251705 54 18265615368678245669
14251731 5 18262239902267086161
19591789 44 18195242214102282630
20261772 1 18341328903250596034
20645477 70 17896040017491385449
20765182 20 18119278192510310243
6287921 2 17987812812871866911
6438718 38 17845644983873044662
7064713 232 18060136501518480019
7832392 63 18267020746650147166

> <PUBCHEM_SHAPE_MULTIPOLES>
379.27
8.46
4.92
1.12
7.32
0.82
0.16
3.16
2.99
-2.09
-1.12
0.33
-0.04
-0.41

> <PUBCHEM_SHAPE_SELFOVERLAP>
698.862

> <PUBCHEM_SHAPE_VOLUME>
240.1

> <PUBCHEM_COORDINATE_TYPE>
2
5
10

$$$$
