16058296
  -OEChem-11232109203D

 36 35  0     1  0  0  0  0  0999 V2000
   -3.3591   -1.9677   -0.6468 O   0  0  0  0  0  0  0  0  0  0  0  0
   -0.0094    0.5516    0.3921 C   0  0  1  0  0  0  0  0  0  0  0  0
   -0.2169    2.0662    0.0944 C   0  0  0  0  0  0  0  0  0  0  0  0
   -1.1665   -0.3556   -0.0922 C   0  0  0  0  0  0  0  0  0  0  0  0
   -2.5474    0.0000    0.4558 C   0  0  0  0  0  0  0  0  0  0  0  0
    0.8628    2.9269    0.7648 C   0  0  0  0  0  0  0  0  0  0  0  0
   -0.2943    2.4097   -1.3966 C   0  0  0  0  0  0  0  0  0  0  0  0
    1.2864    0.0157   -0.1888 C   0  0  0  0  0  0  0  0  0  0  0  0
   -3.6277   -0.9708    0.0240 C   0  0  0  0  0  0  0  0  0  0  0  0
    2.2840   -0.4821    0.5607 C   0  0  0  0  0  0  0  0  0  0  0  0
    3.5487   -1.0148    0.0712 C   0  0  0  0  0  0  0  0  0  0  0  0
   -5.0445   -0.6624    0.4311 C   0  0  0  0  0  0  0  0  0  0  0  0
    3.8214   -1.0336   -1.4073 C   0  0  0  0  0  0  0  0  0  0  0  0
    4.4625   -1.4831    0.9375 C   0  0  0  0  0  0  0  0  0  0  0  0
    0.0266    0.4474    1.4863 H   0  0  0  0  0  0  0  0  0  0  0  0
   -1.1677    2.3713    0.5487 H   0  0  0  0  0  0  0  0  0  0  0  0
   -1.2075   -0.3606   -1.1896 H   0  0  0  0  0  0  0  0  0  0  0  0
   -0.9367   -1.3917    0.1950 H   0  0  0  0  0  0  0  0  0  0  0  0
   -2.5236    0.0108    1.5508 H   0  0  0  0  0  0  0  0  0  0  0  0
   -2.8507    0.9903    0.1016 H   0  0  0  0  0  0  0  0  0  0  0  0
    0.9214    2.7129    1.8371 H   0  0  0  0  0  0  0  0  0  0  0  0
    1.8511    2.7544    0.3263 H   0  0  0  0  0  0  0  0  0  0  0  0
    0.6309    3.9916    0.6515 H   0  0  0  0  0  0  0  0  0  0  0  0
   -0.5125    3.4752   -1.5306 H   0  0  0  0  0  0  0  0  0  0  0  0
    0.6471    2.2017   -1.9145 H   0  0  0  0  0  0  0  0  0  0  0  0
   -1.0924    1.8515   -1.8945 H   0  0  0  0  0  0  0  0  0  0  0  0
    1.3737    0.0351   -1.2718 H   0  0  0  0  0  0  0  0  0  0  0  0
    2.1526   -0.4921    1.6418 H   0  0  0  0  0  0  0  0  0  0  0  0
   -5.3560    0.2836   -0.0182 H   0  0  0  0  0  0  0  0  0  0  0  0
   -5.7101   -1.4575    0.0841 H   0  0  0  0  0  0  0  0  0  0  0  0
   -5.1062   -0.6011    1.5204 H   0  0  0  0  0  0  0  0  0  0  0  0
    3.8004   -0.0189   -1.8192 H   0  0  0  0  0  0  0  0  0  0  0  0
    4.8063   -1.4553   -1.6376 H   0  0  0  0  0  0  0  0  0  0  0  0
    3.0783   -1.6442   -1.9316 H   0  0  0  0  0  0  0  0  0  0  0  0
    5.4114   -1.8836    0.5947 H   0  0  0  0  0  0  0  0  0  0  0  0
    4.2925   -1.4810    2.0099 H   0  0  0  0  0  0  0  0  0  0  0  0
  1  9  2  0  0  0  0
  2  3  1  0  0  0  0
  2  4  1  0  0  0  0
  2  8  1  0  0  0  0
  2 15  1  0  0  0  0
  3  6  1  0  0  0  0
  3  7  1  0  0  0  0
  3 16  1  0  0  0  0
  4  5  1  0  0  0  0
  4 17  1  0  0  0  0
  4 18  1  0  0  0  0
  5  9  1  0  0  0  0
  5 19  1  0  0  0  0
  5 20  1  0  0  0  0
  6 21  1  0  0  0  0
  6 22  1  0  0  0  0
  6 23  1  0  0  0  0
  7 24  1  0  0  0  0
  7 25  1  0  0  0  0
  7 26  1  0  0  0  0
  8 10  2  0  0  0  0
  8 27  1  0  0  0  0
  9 12  1  0  0  0  0
 10 11  1  0  0  0  0
 10 28  1  0  0  0  0
 11 13  1  0  0  0  0
 11 14  2  0  0  0  0
 12 29  1  0  0  0  0
 12 30  1  0  0  0  0
 12 31  1  0  0  0  0
 13 32  1  0  0  0  0
 13 33  1  0  0  0  0
 13 34  1  0  0  0  0
 14 35  1  0  0  0  0
 14 36  1  0  0  0  0
M  END
> <PUBCHEM_COMPOUND_CID>
16058296

> <PUBCHEM_CONFORMER_RMSD>
0.6

> <PUBCHEM_CONFORMER_DIVERSEORDER>
1
49
84
94
36
95
100
97
11
22
104
101
98
51
86
20
6
33
70
99
50
16
96
28
73
61
79
25
103
105
30
72
63
65
31
90
66
62
85
29
74
83
92
10
40
5
43
13
64
12
82
68
48
4
80
93
8
18
55
56
42
35
19
9
3
76
67
46
54
58
102
91
78
15
45
47
26
2
89
44
77
38
87
34
75
14
37
88
59
23
41
32
52
7
69
21
71
24
39
57
17
27
53
81
60

> <PUBCHEM_MMFF94_PARTIAL_CHARGES>
14
1 -0.57
10 -0.15
11 -0.14
12 0.06
13 0.14
14 -0.3
2 0.14
27 0.15
28 0.15
35 0.15
36 0.15
5 0.06
8 -0.29
9 0.45

> <PUBCHEM_EFFECTIVE_ROTOR_COUNT>
6

> <PUBCHEM_PHARMACOPHORE_FEATURES>
3
1 1 acceptor
3 3 6 7 hydrophobe
5 2 3 4 5 8 hydrophobe

> <PUBCHEM_HEAVY_ATOM_COUNT>
14

> <PUBCHEM_ATOM_DEF_STEREO_COUNT>
1

> <PUBCHEM_ATOM_UDEF_STEREO_COUNT>
0

> <PUBCHEM_BOND_DEF_STEREO_COUNT>
1

> <PUBCHEM_BOND_UDEF_STEREO_COUNT>
0

> <PUBCHEM_ISOTOPIC_ATOM_COUNT>
0

> <PUBCHEM_COMPONENT_COUNT>
1

> <PUBCHEM_CACTVS_TAUTO_COUNT>
3

> <PUBCHEM_CONFORMER_ID>
00F507B800000001

> <PUBCHEM_MMFF94_ENERGY>
19.1286

> <PUBCHEM_FEATURE_SELFOVERLAP>
15.328

> <PUBCHEM_SHAPE_FINGERPRINT>
10726558 24 8574712424997396920
10922049 32 9295287261317068353
10989021 7 18412266150985339824
11543360 7 15574722425313327243
12119455 92 12391513044769395811
12553582 1 18410851053497588499
12841375 25 18409446990123030057
14123255 52 8574713485722599459
14178000 29 18272938240594196934
14252887 29 18060142024767723386
15342816 4 18410859867155413646
15885798 251 18411419488187050291
1813 80 18337122201858709765
18186145 218 13045950075114334662
18222031 100 18202002131236783262
200 152 17531246119727689290
20097449 115 18409162225111881744
20388580 30 18260834833833504181
204376 136 11095881570959830553
20645477 70 18267577095550083911
20671657 53 18335420192382258889
20711985 327 18343590646018670317
20871998 22 18410566314509055592
20871999 31 17967812709015050973
21296965 67 18410291397873390304
21339142 36 18337943481337073604
23402539 116 18114740434997477834
23419403 2 18057295401652947520
23526113 38 17313953046559753473
23532345 12 18131638902567046307
23557571 272 18270684169555039220
23598291 2 18269835479522110951
31174 14 17917418844398460656
314173 85 18272091569459472482
621550 34 17846208939671414122
68521 5 18263083232049155453
7364860 26 18126849527983634209
81228 2 18192447276628662680
83771 10 18407759231237115923
8863177 126 17897743182693899787

> <PUBCHEM_SHAPE_MULTIPOLES>
282.24
8.58
2.63
1.09
2.32
2.43
0.28
-7.92
-0.54
-0.03
0.12
-0.7
0.18
-0.05

> <PUBCHEM_SHAPE_SELFOVERLAP>
529.802

> <PUBCHEM_SHAPE_VOLUME>
176.7

> <PUBCHEM_COORDINATE_TYPE>
2
5
10

$$$$
