16063533
  -OEChem-11232109163D

 39 39  0     1  0  0  0  0  0999 V2000
   -4.5118    1.1501    0.7686 O   0  0  0  0  0  0  0  0  0  0  0  0
    1.8717   -0.5872   -0.1321 C   0  0  0  0  0  0  0  0  0  0  0  0
    0.5886    0.2502    0.1688 C   0  0  1  0  0  0  0  0  0  0  0  0
    1.0737    1.7020    0.3003 C   0  0  0  0  0  0  0  0  0  0  0  0
    2.9288    0.2754    0.5356 C   0  0  0  0  0  0  0  0  0  0  0  0
   -0.5429    0.0958   -0.7960 C   0  0  0  0  0  0  0  0  0  0  0  0
    2.4835    1.5205    0.7555 C   0  0  0  0  0  0  0  0  0  0  0  0
    1.7542   -1.9856    0.4895 C   0  0  0  0  0  0  0  0  0  0  0  0
    2.1836   -0.7159   -1.6342 C   0  0  0  0  0  0  0  0  0  0  0  0
   -1.5831   -0.9541   -0.4762 C   0  0  0  0  0  0  0  0  0  0  0  0
    4.3000   -0.2184    0.8429 C   0  0  0  0  0  0  0  0  0  0  0  0
   -2.7233   -0.4706    0.4475 C   0  0  1  0  0  0  0  0  0  0  0  0
   -0.6479    0.8796   -1.8805 C   0  0  0  0  0  0  0  0  0  0  0  0
   -3.5161    0.7050   -0.1420 C   0  0  0  0  0  0  0  0  0  0  0  0
   -3.6589   -1.6467    0.7521 C   0  0  0  0  0  0  0  0  0  0  0  0
    0.2142   -0.0270    1.1676 H   0  0  0  0  0  0  0  0  0  0  0  0
    0.4865    2.2352    1.0562 H   0  0  0  0  0  0  0  0  0  0  0  0
    1.0929    2.3101   -0.6052 H   0  0  0  0  0  0  0  0  0  0  0  0
    3.0739    2.3164    1.1872 H   0  0  0  0  0  0  0  0  0  0  0  0
    1.5274   -1.9356    1.5605 H   0  0  0  0  0  0  0  0  0  0  0  0
    0.9728   -2.5776    0.0040 H   0  0  0  0  0  0  0  0  0  0  0  0
    2.6893   -2.5471    0.3801 H   0  0  0  0  0  0  0  0  0  0  0  0
    2.2672    0.2609   -2.1238 H   0  0  0  0  0  0  0  0  0  0  0  0
    3.1362   -1.2355   -1.7922 H   0  0  0  0  0  0  0  0  0  0  0  0
    1.4177   -1.2983   -2.1581 H   0  0  0  0  0  0  0  0  0  0  0  0
   -2.0207   -1.3224   -1.4147 H   0  0  0  0  0  0  0  0  0  0  0  0
   -1.0978   -1.8268   -0.0270 H   0  0  0  0  0  0  0  0  0  0  0  0
   -2.2926   -0.1488    1.4050 H   0  0  0  0  0  0  0  0  0  0  0  0
    4.7860   -0.6001   -0.0598 H   0  0  0  0  0  0  0  0  0  0  0  0
    4.2641   -1.0204    1.5863 H   0  0  0  0  0  0  0  0  0  0  0  0
    4.9322    0.5792    1.2474 H   0  0  0  0  0  0  0  0  0  0  0  0
   -1.4885    0.7575   -2.5584 H   0  0  0  0  0  0  0  0  0  0  0  0
    0.0759    1.6256   -2.1772 H   0  0  0  0  0  0  0  0  0  0  0  0
   -4.0127    0.4170   -1.0743 H   0  0  0  0  0  0  0  0  0  0  0  0
   -2.8727    1.5635   -0.3512 H   0  0  0  0  0  0  0  0  0  0  0  0
   -3.1022   -2.4831    1.1884 H   0  0  0  0  0  0  0  0  0  0  0  0
   -4.1526   -2.0062   -0.1571 H   0  0  0  0  0  0  0  0  0  0  0  0
   -4.4351   -1.3609    1.4695 H   0  0  0  0  0  0  0  0  0  0  0  0
   -4.0616    1.4127    1.5895 H   0  0  0  0  0  0  0  0  0  0  0  0
  1 14  1  0  0  0  0
  1 39  1  0  0  0  0
  2  3  1  0  0  0  0
  2  5  1  0  0  0  0
  2  8  1  0  0  0  0
  2  9  1  0  0  0  0
  3  4  1  0  0  0  0
  3  6  1  0  0  0  0
  3 16  1  0  0  0  0
  4  7  1  0  0  0  0
  4 17  1  0  0  0  0
  4 18  1  0  0  0  0
  5  7  2  0  0  0  0
  5 11  1  0  0  0  0
  6 10  1  0  0  0  0
  6 13  2  0  0  0  0
  7 19  1  0  0  0  0
  8 20  1  0  0  0  0
  8 21  1  0  0  0  0
  8 22  1  0  0  0  0
  9 23  1  0  0  0  0
  9 24  1  0  0  0  0
  9 25  1  0  0  0  0
 10 12  1  0  0  0  0
 10 26  1  0  0  0  0
 10 27  1  0  0  0  0
 11 29  1  0  0  0  0
 11 30  1  0  0  0  0
 11 31  1  0  0  0  0
 12 14  1  0  0  0  0
 12 15  1  0  0  0  0
 12 28  1  0  0  0  0
 13 32  1  0  0  0  0
 13 33  1  0  0  0  0
 14 34  1  0  0  0  0
 14 35  1  0  0  0  0
 15 36  1  0  0  0  0
 15 37  1  0  0  0  0
 15 38  1  0  0  0  0
M  END
> <PUBCHEM_COMPOUND_CID>
16063533

> <PUBCHEM_CONFORMER_RMSD>
0.6

> <PUBCHEM_CONFORMER_DIVERSEORDER>
10
133
89
177
150
12
126
160
77
147
138
164
135
69
161
141
115
85
162
92
109
176
105
86
50
136
153
144
19
152
28
163
65
158
168
56
170
23
142
66
130
112
125
20
63
108
43
39
120
156
111
31
67
165
169
101
134
52
124
178
100
137
78
132
64
41
96
46
54
57
91
159
73
157
128
82
95
62
119
55
70
99
83
129
114
167
45
47
151
18
75
60
102
98
68
42
106
94
72
174
122
3
44
21
6
11
33
97
107
103
104
25
84
149
13
140
121
16
146
80
22
110
171
154
36
155
93
127
76
27
173
58
145
61
37
166
139
14
172
87
32
38
81
35
1
117
29
40
34
123
5
175
17
8
7
15
48
4
90
131
9
26
88
74
30
113
148
51
143
24
79
2
116
59
53
118
71
49

> <PUBCHEM_MMFF94_PARTIAL_CHARGES>
15
1 -0.68
10 0.14
11 0.14
13 -0.3
14 0.28
19 0.15
2 0.14
3 0.14
32 0.15
33 0.15
39 0.4
4 0.14
5 -0.28
6 -0.28
7 -0.29

> <PUBCHEM_EFFECTIVE_ROTOR_COUNT>
4.6

> <PUBCHEM_PHARMACOPHORE_FEATURES>
6
1 1 acceptor
1 1 donor
1 13 hydrophobe
1 15 hydrophobe
3 2 8 9 hydrophobe
5 2 3 4 5 7 rings

> <PUBCHEM_HEAVY_ATOM_COUNT>
15

> <PUBCHEM_ATOM_DEF_STEREO_COUNT>
0

> <PUBCHEM_ATOM_UDEF_STEREO_COUNT>
2

> <PUBCHEM_BOND_DEF_STEREO_COUNT>
0

> <PUBCHEM_BOND_UDEF_STEREO_COUNT>
0

> <PUBCHEM_ISOTOPIC_ATOM_COUNT>
0

> <PUBCHEM_COMPONENT_COUNT>
1

> <PUBCHEM_CACTVS_TAUTO_COUNT>
1

> <PUBCHEM_CONFORMER_ID>
00F51C2D0000000A

> <PUBCHEM_MMFF94_ENERGY>
37.0661

> <PUBCHEM_FEATURE_SELFOVERLAP>
30.446

> <PUBCHEM_SHAPE_FINGERPRINT>
10980938 120 18131633404249368894
12251169 10 18341890839718128231
12382932 28 18272929461707378522
12500047 106 18260823774793675213
12507560 40 18201728366174644651
12633257 1 18408316670874357313
13296908 3 18343591750020606671
13538477 17 15697986461984191678
13675066 3 17846493764258281696
14178342 30 18186523237117621699
14252887 29 18060145327528813750
15501101 241 18260265282499472580
16945 1 18199443572685831724
17844478 74 18113607985012203964
18186145 218 18271813380570365673
19049666 15 18119237377182745205
19422 9 16733273429723198139
200 152 18129082585198252567
20279233 1 18260541217337655999
20281407 28 17821441357085211443
20281475 54 17967249805974057682
20361792 2 16008743654236344287
20645477 70 17417814976630390255
20711985 327 17458624561891742005
21061003 4 18338502115032881292
22112679 90 16009313085026370980
22169311 14 18408603669263178945
2748010 2 17984126077395317988
3286 77 18262794202171937898
81228 2 17096074780557332613

> <PUBCHEM_SHAPE_MULTIPOLES>
302.82
7.2
1.71
1.3
4.2
0.2
-0.62
0.19
2.8
0.13
0.29
-0.22
-0.12
0.43

> <PUBCHEM_SHAPE_SELFOVERLAP>
602.06

> <PUBCHEM_SHAPE_VOLUME>
183.8

> <PUBCHEM_COORDINATE_TYPE>
2
5
10

$$$$
