16063567
  -OEChem-11232109473D

 52 52  0     1  0  0  0  0  0999 V2000
   -0.0935    1.3337   -0.5484 O   0  0  0  0  0  0  0  0  0  0  0  0
   -2.4894   -0.1630   -0.3832 O   0  0  0  0  0  0  0  0  0  0  0  0
   -4.0166   -0.7831    1.2313 O   0  0  0  0  0  0  0  0  0  0  0  0
    2.9693   -1.6585   -0.1225 C   0  0  0  0  0  0  0  0  0  0  0  0
    1.7482    0.4537    0.7179 C   0  0  1  0  0  0  0  0  0  0  0  0
    1.6193   -0.9215    0.0425 C   0  0  0  0  0  0  0  0  0  0  0  0
    3.9930   -0.7323   -0.8161 C   0  0  0  0  0  0  0  0  0  0  0  0
    2.7695    1.3292   -0.0174 C   0  0  0  0  0  0  0  0  0  0  0  0
    4.1221    0.6364   -0.1493 C   0  0  0  0  0  0  0  0  0  0  0  0
    0.3890    1.1513    0.7765 C   0  0  1  0  0  0  0  0  0  0  0  0
    2.7524   -2.9074   -0.9982 C   0  0  0  0  0  0  0  0  0  0  0  0
    3.5026   -2.1285    1.2449 C   0  0  0  0  0  0  0  0  0  0  0  0
    0.4811    2.4980    1.4715 C   0  0  0  0  0  0  0  0  0  0  0  0
   -1.3589    1.9800   -0.5580 C   0  0  0  0  0  0  0  0  0  0  0  0
   -2.3588    1.1182    0.2229 C   0  0  0  0  0  0  0  0  0  0  0  0
   -1.7705    2.1493   -2.0210 C   0  0  0  0  0  0  0  0  0  0  0  0
   -1.1997    3.3466    0.1107 C   0  0  0  0  0  0  0  0  0  0  0  0
   -3.3598   -1.0258    0.2282 C   0  0  0  0  0  0  0  0  0  0  0  0
   -3.3828   -2.3302   -0.5334 C   0  0  0  0  0  0  0  0  0  0  0  0
   -4.3165   -3.3462    0.1010 C   0  0  0  0  0  0  0  0  0  0  0  0
    2.1000    0.3012    1.7464 H   0  0  0  0  0  0  0  0  0  0  0  0
    1.1688   -0.7970   -0.9517 H   0  0  0  0  0  0  0  0  0  0  0  0
    0.9224   -1.5472    0.6158 H   0  0  0  0  0  0  0  0  0  0  0  0
    4.9792   -1.2121   -0.8481 H   0  0  0  0  0  0  0  0  0  0  0  0
    3.6927   -0.5763   -1.8610 H   0  0  0  0  0  0  0  0  0  0  0  0
    2.4070    1.5831   -1.0214 H   0  0  0  0  0  0  0  0  0  0  0  0
    2.9317    2.2754    0.5097 H   0  0  0  0  0  0  0  0  0  0  0  0
    4.5829    0.5327    0.8397 H   0  0  0  0  0  0  0  0  0  0  0  0
    4.7968    1.2655   -0.7416 H   0  0  0  0  0  0  0  0  0  0  0  0
   -0.2496    0.4735    1.3506 H   0  0  0  0  0  0  0  0  0  0  0  0
    2.3726   -2.6372   -1.9900 H   0  0  0  0  0  0  0  0  0  0  0  0
    3.6890   -3.4583   -1.1406 H   0  0  0  0  0  0  0  0  0  0  0  0
    2.0281   -3.5906   -0.5405 H   0  0  0  0  0  0  0  0  0  0  0  0
    2.7863   -2.7975    1.7356 H   0  0  0  0  0  0  0  0  0  0  0  0
    4.4430   -2.6796    1.1296 H   0  0  0  0  0  0  0  0  0  0  0  0
    3.6951   -1.2979    1.9297 H   0  0  0  0  0  0  0  0  0  0  0  0
    1.2436    2.3571    2.2601 H   0  0  0  0  0  0  0  0  0  0  0  0
   -0.3407    2.7153    2.1571 H   0  0  0  0  0  0  0  0  0  0  0  0
    0.9486    3.3227    0.9316 H   0  0  0  0  0  0  0  0  0  0  0  0
   -2.1283    1.0121    1.2872 H   0  0  0  0  0  0  0  0  0  0  0  0
   -3.3407    1.6096    0.1762 H   0  0  0  0  0  0  0  0  0  0  0  0
   -1.7723    1.1866   -2.5446 H   0  0  0  0  0  0  0  0  0  0  0  0
   -1.0526    2.7835   -2.5543 H   0  0  0  0  0  0  0  0  0  0  0  0
   -2.7656    2.5957   -2.1165 H   0  0  0  0  0  0  0  0  0  0  0  0
   -0.3344    3.9342   -0.2078 H   0  0  0  0  0  0  0  0  0  0  0  0
   -1.9905    3.9645   -0.3573 H   0  0  0  0  0  0  0  0  0  0  0  0
   -1.5735    3.4659    1.1296 H   0  0  0  0  0  0  0  0  0  0  0  0
   -2.3660   -2.7364   -0.5547 H   0  0  0  0  0  0  0  0  0  0  0  0
   -3.7096   -2.1266   -1.5586 H   0  0  0  0  0  0  0  0  0  0  0  0
   -5.3444   -2.9701    0.1318 H   0  0  0  0  0  0  0  0  0  0  0  0
   -4.3103   -4.2790   -0.4711 H   0  0  0  0  0  0  0  0  0  0  0  0
   -4.0119   -3.5723    1.1283 H   0  0  0  0  0  0  0  0  0  0  0  0
  1 10  1  0  0  0  0
  1 14  1  0  0  0  0
  2 15  1  0  0  0  0
  2 18  1  0  0  0  0
  3 18  2  0  0  0  0
  4  6  1  0  0  0  0
  4  7  1  0  0  0  0
  4 11  1  0  0  0  0
  4 12  1  0  0  0  0
  5  6  1  0  0  0  0
  5  8  1  0  0  0  0
  5 10  1  0  0  0  0
  5 21  1  0  0  0  0
  6 22  1  0  0  0  0
  6 23  1  0  0  0  0
  7  9  1  0  0  0  0
  7 24  1  0  0  0  0
  7 25  1  0  0  0  0
  8  9  1  0  0  0  0
  8 26  1  0  0  0  0
  8 27  1  0  0  0  0
  9 28  1  0  0  0  0
  9 29  1  0  0  0  0
 10 13  1  0  0  0  0
 10 30  1  0  0  0  0
 11 31  1  0  0  0  0
 11 32  1  0  0  0  0
 11 33  1  0  0  0  0
 12 34  1  0  0  0  0
 12 35  1  0  0  0  0
 12 36  1  0  0  0  0
 13 37  1  0  0  0  0
 13 38  1  0  0  0  0
 13 39  1  0  0  0  0
 14 15  1  0  0  0  0
 14 16  1  0  0  0  0
 14 17  1  0  0  0  0
 15 40  1  0  0  0  0
 15 41  1  0  0  0  0
 16 42  1  0  0  0  0
 16 43  1  0  0  0  0
 16 44  1  0  0  0  0
 17 45  1  0  0  0  0
 17 46  1  0  0  0  0
 17 47  1  0  0  0  0
 18 19  1  0  0  0  0
 19 20  1  0  0  0  0
 19 48  1  0  0  0  0
 19 49  1  0  0  0  0
 20 50  1  0  0  0  0
 20 51  1  0  0  0  0
 20 52  1  0  0  0  0
M  END
> <PUBCHEM_COMPOUND_CID>
16063567

> <PUBCHEM_CONFORMER_RMSD>
0.8

> <PUBCHEM_CONFORMER_DIVERSEORDER>
68
54
3
9
52
65
72
42
56
60
69
43
15
33
55
61
26
64
53
63
47
41
57
25
32
13
71
50
58
21
23
37
67
62
46
29
34
8
66
28
48
70
6
49
20
31
14
12
59
51
10
11
40
22
16
45
44
18
38
30
39
36
7
35
19
27
24
17
5
4
2
1

> <PUBCHEM_MMFF94_PARTIAL_CHARGES>
8
1 -0.56
10 0.28
14 0.28
15 0.28
18 0.66
19 0.06
2 -0.43
3 -0.57

> <PUBCHEM_EFFECTIVE_ROTOR_COUNT>
8.2

> <PUBCHEM_PHARMACOPHORE_FEATURES>
6
1 1 acceptor
1 20 hydrophobe
1 3 acceptor
3 14 16 17 hydrophobe
3 4 11 12 hydrophobe
6 4 5 6 7 8 9 rings

> <PUBCHEM_HEAVY_ATOM_COUNT>
20

> <PUBCHEM_ATOM_DEF_STEREO_COUNT>
0

> <PUBCHEM_ATOM_UDEF_STEREO_COUNT>
2

> <PUBCHEM_BOND_DEF_STEREO_COUNT>
0

> <PUBCHEM_BOND_UDEF_STEREO_COUNT>
0

> <PUBCHEM_ISOTOPIC_ATOM_COUNT>
0

> <PUBCHEM_COMPONENT_COUNT>
1

> <PUBCHEM_CACTVS_TAUTO_COUNT>
1

> <PUBCHEM_CONFORMER_ID>
00F51C4F00000044

> <PUBCHEM_MMFF94_ENERGY>
90.0139

> <PUBCHEM_FEATURE_SELFOVERLAP>
30.446

> <PUBCHEM_SHAPE_FINGERPRINT>
10616163 171 18341052938811722518
114674 6 17975123555065258595
11552529 35 17917996096413642131
12054548 360 18412260657500414194
12173636 292 17833267519465533452
12506688 2 18272090499959686400
12553582 1 18341045306676020783
12596599 1 18130241384090742051
12633257 1 18201727206523146347
12714826 92 18336266721809455601
12990986 174 18337663140105414714
13103583 49 17845675723491824859
13533116 47 17912929684778569803
13631057 29 18410294718415866622
14251705 54 18342176648396085326
14251731 5 18411984693188595695
14787075 74 18265901439792371360
14863182 85 17543350913810395221
15352361 1 18338797935274479919
15537594 2 18336563684464992787
17357779 13 18264470945010011655
17492 54 17389674308042046148
1813 80 17822019743699896365
18186145 218 17608661509563667540
19141452 34 18412269428577740475
20281475 54 18411701010608900257
20291156 8 18411420656745384219
20602899 9 17830151538388931165
20775530 9 18339079410261824603
21665056 4 17834392324382113981
221490 88 18340210679120088054
23379529 103 18128550266804497534
23557571 272 18040991817471664868
23559900 14 18340195285878385880
238078 22 18270691878588909760
2838139 119 16662368068875395582
2871803 45 18334571360594245558
3421961 26 18196371653003791099
3737641 26 18342193166756156502
46194498 28 17244692705299180191
5309563 4 18195245740128222127
633830 44 14925369399849951268
9709674 26 18126279740663616054

> <PUBCHEM_SHAPE_MULTIPOLES>
393.98
8.15
4.13
1.27
0.95
0.75
-0.16
7.34
0
2.61
-0.19
0.08
-0.4
0.76

> <PUBCHEM_SHAPE_SELFOVERLAP>
779.462

> <PUBCHEM_SHAPE_VOLUME>
234.7

> <PUBCHEM_COORDINATE_TYPE>
2
5
10

$$$$
