160707
  -OEChem-11232108523D

 38 37  0     1  0  0  0  0  0999 V2000
   -2.9450   -0.5352   -0.5308 O   0  0  0  0  0  0  0  0  0  0  0  0
    5.7899   -0.5592    0.1899 O   0  0  0  0  0  0  0  0  0  0  0  0
   -2.7745    0.8103   -0.0643 C   0  0  0  0  0  0  0  0  0  0  0  0
   -1.3990    0.8848    0.6298 C   0  0  0  0  0  0  0  0  0  0  0  0
   -0.1975    0.5148   -0.2464 C   0  0  0  0  0  0  0  0  0  0  0  0
    1.1048    0.5539    0.5628 C   0  0  0  0  0  0  0  0  0  0  0  0
    2.3660    0.2621   -0.2780 C   0  0  1  0  0  0  0  0  0  0  0  0
   -3.9294    1.1192    0.8907 C   0  0  0  0  0  0  0  0  0  0  0  0
   -2.8510    1.7115   -1.2973 C   0  0  0  0  0  0  0  0  0  0  0  0
    3.6175    0.4582    0.5953 C   0  0  0  0  0  0  0  0  0  0  0  0
    2.3378   -1.1543   -0.8652 C   0  0  0  0  0  0  0  0  0  0  0  0
   -2.9294   -1.4535    0.5476 C   0  0  0  0  0  0  0  0  0  0  0  0
    4.9221    0.2423   -0.1389 C   0  0  0  0  0  0  0  0  0  0  0  0
   -3.1124   -2.8547    0.0047 C   0  0  0  0  0  0  0  0  0  0  0  0
   -1.2569    1.9268    0.9529 H   0  0  0  0  0  0  0  0  0  0  0  0
   -1.3696    0.3190    1.5670 H   0  0  0  0  0  0  0  0  0  0  0  0
   -0.1128    1.2115   -1.0873 H   0  0  0  0  0  0  0  0  0  0  0  0
   -0.3473   -0.4865   -0.6611 H   0  0  0  0  0  0  0  0  0  0  0  0
    1.0400   -0.1652    1.3897 H   0  0  0  0  0  0  0  0  0  0  0  0
    1.2051    1.5478    1.0175 H   0  0  0  0  0  0  0  0  0  0  0  0
    2.4108    0.9732   -1.1130 H   0  0  0  0  0  0  0  0  0  0  0  0
   -3.7878    0.6835    1.8856 H   0  0  0  0  0  0  0  0  0  0  0  0
   -4.0145    2.2007    1.0492 H   0  0  0  0  0  0  0  0  0  0  0  0
   -4.8866    0.7584    0.4975 H   0  0  0  0  0  0  0  0  0  0  0  0
   -2.1583    1.3866   -2.0808 H   0  0  0  0  0  0  0  0  0  0  0  0
   -2.6373    2.7555   -1.0469 H   0  0  0  0  0  0  0  0  0  0  0  0
   -3.8502    1.6646   -1.7466 H   0  0  0  0  0  0  0  0  0  0  0  0
    3.6430    1.4802    0.9911 H   0  0  0  0  0  0  0  0  0  0  0  0
    3.5959   -0.2251    1.4528 H   0  0  0  0  0  0  0  0  0  0  0  0
    2.2437   -1.9078   -0.0759 H   0  0  0  0  0  0  0  0  0  0  0  0
    1.5026   -1.2820   -1.5601 H   0  0  0  0  0  0  0  0  0  0  0  0
    3.2492   -1.3707   -1.4318 H   0  0  0  0  0  0  0  0  0  0  0  0
   -3.7476   -1.2861    1.2524 H   0  0  0  0  0  0  0  0  0  0  0  0
   -1.9779   -1.4692    1.0820 H   0  0  0  0  0  0  0  0  0  0  0  0
    5.0733    0.8926   -1.0184 H   0  0  0  0  0  0  0  0  0  0  0  0
   -3.1067   -3.5936    0.8113 H   0  0  0  0  0  0  0  0  0  0  0  0
   -4.0584   -2.9366   -0.5410 H   0  0  0  0  0  0  0  0  0  0  0  0
   -2.3144   -3.1009   -0.7040 H   0  0  0  0  0  0  0  0  0  0  0  0
  1  3  1  0  0  0  0
  1 12  1  0  0  0  0
  2 13  2  0  0  0  0
  3  4  1  0  0  0  0
  3  8  1  0  0  0  0
  3  9  1  0  0  0  0
  4  5  1  0  0  0  0
  4 15  1  0  0  0  0
  4 16  1  0  0  0  0
  5  6  1  0  0  0  0
  5 17  1  0  0  0  0
  5 18  1  0  0  0  0
  6  7  1  0  0  0  0
  6 19  1  0  0  0  0
  6 20  1  0  0  0  0
  7 10  1  0  0  0  0
  7 11  1  0  0  0  0
  7 21  1  0  0  0  0
  8 22  1  0  0  0  0
  8 23  1  0  0  0  0
  8 24  1  0  0  0  0
  9 25  1  0  0  0  0
  9 26  1  0  0  0  0
  9 27  1  0  0  0  0
 10 13  1  0  0  0  0
 10 28  1  0  0  0  0
 10 29  1  0  0  0  0
 11 30  1  0  0  0  0
 11 31  1  0  0  0  0
 11 32  1  0  0  0  0
 12 14  1  0  0  0  0
 12 33  1  0  0  0  0
 12 34  1  0  0  0  0
 13 35  1  0  0  0  0
 14 36  1  0  0  0  0
 14 37  1  0  0  0  0
 14 38  1  0  0  0  0
M  END
> <PUBCHEM_COMPOUND_CID>
160707

> <PUBCHEM_CONFORMER_RMSD>
0.8

> <PUBCHEM_CONFORMER_DIVERSEORDER>
1
82
45
90
74
97
59
78
3
70
67
37
52
75
63
87
48
46
68
73
15
76
50
11
85
51
39
84
55
92
41
22
64
44
83
89
43
36
69
54
53
65
88
81
8
28
42
86
49
20
29
38
24
95
18
91
66
72
94
32
61
16
71
57
62
34
80
93
4
25
31
79
96
21
19
26
5
12
47
60
30
40
9
13
14
23
35
77
58
33
2
10
17
27
6
56
7

> <PUBCHEM_MMFF94_PARTIAL_CHARGES>
7
1 -0.56
10 0.06
12 0.28
13 0.45
2 -0.57
3 0.28
35 0.06

> <PUBCHEM_EFFECTIVE_ROTOR_COUNT>
8

> <PUBCHEM_PHARMACOPHORE_FEATURES>
5
1 1 acceptor
1 11 hydrophobe
1 2 acceptor
3 3 8 9 hydrophobe
5 4 5 6 7 10 hydrophobe

> <PUBCHEM_HEAVY_ATOM_COUNT>
14

> <PUBCHEM_ATOM_DEF_STEREO_COUNT>
0

> <PUBCHEM_ATOM_UDEF_STEREO_COUNT>
1

> <PUBCHEM_BOND_DEF_STEREO_COUNT>
0

> <PUBCHEM_BOND_UDEF_STEREO_COUNT>
0

> <PUBCHEM_ISOTOPIC_ATOM_COUNT>
0

> <PUBCHEM_COMPONENT_COUNT>
1

> <PUBCHEM_CACTVS_TAUTO_COUNT>
2

> <PUBCHEM_CONFORMER_ID>
000273C300000001

> <PUBCHEM_MMFF94_ENERGY>
30.6763

> <PUBCHEM_FEATURE_SELFOVERLAP>
25.409

> <PUBCHEM_SHAPE_FINGERPRINT>
10366900 7 17846486007236336152
10680689 15 18113337505130788832
12091667 2 17385725786251854656
12500047 106 18336820901450357477
12757275 245 18336547213223084619
12916754 54 18335983189448717933
12932764 1 18040148509449047729
13167823 11 18113051623971216002
14123238 8 12035737509260965424
15099037 37 18340206387761976631
15375358 24 18059858324586061557
17834072 33 18186806915797397612
19433438 15 17458352922358575284
1986462 14 18410012156342853604
200 152 16917062244071338808
20279233 1 18201725037168691565
20645477 56 18262234422347986333
20645477 70 16988003769640846380
20828058 44 18413109463613510856
20871999 31 18337095814191819765
21079973 296 18342458170706775666
21339142 51 18412258437266443001
220451 1 18261117344757091738
22485316 2 18333730187444720248
22959321 105 18408603677737231292
23402539 116 17240198824934626668
23557571 272 18410293579775124044
23559900 14 18339912831079452144
26918003 58 18131633370200925536
4214541 1 18410293609850048048
5104073 3 18272367607492766992
57265010 4 18202570570553937449
58051976 100 18408321107427575255

> <PUBCHEM_SHAPE_MULTIPOLES>
276.37
10.38
1.98
0.97
12.95
1.52
0.12
1.05
-0.66
-3.1
0.19
-0.44
-0.24
0.46

> <PUBCHEM_SHAPE_SELFOVERLAP>
511.502

> <PUBCHEM_SHAPE_VOLUME>
175.1

> <PUBCHEM_COORDINATE_TYPE>
2
5
10

$$$$
