16070752
  -OEChem-11232109073D

 49 50  0     1  0  0  0  0  0999 V2000
    0.0784   -0.5605    0.8346 O   0  0  0  0  0  0  0  0  0  0  0  0
    0.4310    0.4270   -1.2974 O   0  0  0  0  0  0  0  0  0  0  0  0
    2.3421    0.0977    0.1902 C   0  0  0  0  0  0  0  0  0  0  0  0
   -1.7717   -0.1741   -0.6162 C   0  0  1  0  0  0  0  0  0  0  0  0
    3.8041   -0.3634    0.2181 C   0  0  1  0  0  0  0  0  0  0  0  0
   -0.2998   -0.5432   -0.5437 C   0  0  0  0  0  0  0  0  0  0  0  0
    1.4611   -0.8885    0.9797 C   0  0  0  0  0  0  0  0  0  0  0  0
    1.8319    0.1503   -1.2623 C   0  0  0  0  0  0  0  0  0  0  0  0
   -2.6688   -1.2198    0.0956 C   0  0  1  0  0  0  0  0  0  0  0  0
   -1.9901    1.2178   -0.0075 C   0  0  0  0  0  0  0  0  0  0  0  0
    2.2406    1.4992    0.8227 C   0  0  0  0  0  0  0  0  0  0  0  0
   -3.4484    1.6596   -0.1379 C   0  0  0  0  0  0  0  0  0  0  0  0
    4.6696    0.6029   -0.6076 C   0  0  0  0  0  0  0  0  0  0  0  0
   -4.0659   -0.7044    0.3561 C   0  0  0  0  0  0  0  0  0  0  0  0
    4.2783   -0.4813    1.6663 C   0  0  0  0  0  0  0  0  0  0  0  0
   -4.4321    0.5831    0.2359 C   0  0  0  0  0  0  0  0  0  0  0  0
   -2.7477   -2.5226   -0.7085 C   0  0  0  0  0  0  0  0  0  0  0  0
    6.1319    0.1889   -0.6892 C   0  0  0  0  0  0  0  0  0  0  0  0
   -5.8445    1.0315    0.4710 C   0  0  0  0  0  0  0  0  0  0  0  0
   -2.0587   -0.1131   -1.6763 H   0  0  0  0  0  0  0  0  0  0  0  0
    3.8752   -1.3607   -0.2375 H   0  0  0  0  0  0  0  0  0  0  0  0
   -0.1309   -1.5320   -0.9864 H   0  0  0  0  0  0  0  0  0  0  0  0
    1.6143   -1.9237    0.6506 H   0  0  0  0  0  0  0  0  0  0  0  0
    1.6538   -0.8486    2.0549 H   0  0  0  0  0  0  0  0  0  0  0  0
    2.2987    0.9540   -1.8379 H   0  0  0  0  0  0  0  0  0  0  0  0
    2.0190   -0.7917   -1.7926 H   0  0  0  0  0  0  0  0  0  0  0  0
   -2.2476   -1.4644    1.0795 H   0  0  0  0  0  0  0  0  0  0  0  0
   -1.3573    1.9699   -0.4931 H   0  0  0  0  0  0  0  0  0  0  0  0
   -1.7168    1.2171    1.0561 H   0  0  0  0  0  0  0  0  0  0  0  0
    2.7670    2.2705    0.2543 H   0  0  0  0  0  0  0  0  0  0  0  0
    1.1943    1.8296    0.8513 H   0  0  0  0  0  0  0  0  0  0  0  0
    2.5822    1.5326    1.8605 H   0  0  0  0  0  0  0  0  0  0  0  0
   -3.6467    1.9701   -1.1712 H   0  0  0  0  0  0  0  0  0  0  0  0
   -3.5999    2.5404    0.4976 H   0  0  0  0  0  0  0  0  0  0  0  0
    4.6573    1.6166   -0.1973 H   0  0  0  0  0  0  0  0  0  0  0  0
    4.3186    0.6615   -1.6413 H   0  0  0  0  0  0  0  0  0  0  0  0
   -4.8078   -1.4374    0.6659 H   0  0  0  0  0  0  0  0  0  0  0  0
    4.3678    0.4841    2.1714 H   0  0  0  0  0  0  0  0  0  0  0  0
    5.2804   -0.9260    1.6883 H   0  0  0  0  0  0  0  0  0  0  0  0
    3.6680   -1.1498    2.2768 H   0  0  0  0  0  0  0  0  0  0  0  0
   -3.1336   -2.3453   -1.7187 H   0  0  0  0  0  0  0  0  0  0  0  0
   -1.7673   -2.9996   -0.7982 H   0  0  0  0  0  0  0  0  0  0  0  0
   -3.4107   -3.2470   -0.2212 H   0  0  0  0  0  0  0  0  0  0  0  0
    6.6697    0.8438   -1.3829 H   0  0  0  0  0  0  0  0  0  0  0  0
    6.2308   -0.8394   -1.0512 H   0  0  0  0  0  0  0  0  0  0  0  0
    6.6283    0.2659    0.2826 H   0  0  0  0  0  0  0  0  0  0  0  0
   -6.5073    0.1966    0.7218 H   0  0  0  0  0  0  0  0  0  0  0  0
   -6.2426    1.5145   -0.4272 H   0  0  0  0  0  0  0  0  0  0  0  0
   -5.8832    1.7480    1.2978 H   0  0  0  0  0  0  0  0  0  0  0  0
  1  6  1  0  0  0  0
  1  7  1  0  0  0  0
  2  6  1  0  0  0  0
  2  8  1  0  0  0  0
  3  5  1  0  0  0  0
  3  7  1  0  0  0  0
  3  8  1  0  0  0  0
  3 11  1  0  0  0  0
  4  6  1  0  0  0  0
  4  9  1  0  0  0  0
  4 10  1  0  0  0  0
  4 20  1  0  0  0  0
  5 13  1  0  0  0  0
  5 15  1  0  0  0  0
  5 21  1  0  0  0  0
  6 22  1  0  0  0  0
  7 23  1  0  0  0  0
  7 24  1  0  0  0  0
  8 25  1  0  0  0  0
  8 26  1  0  0  0  0
  9 14  1  0  0  0  0
  9 17  1  0  0  0  0
  9 27  1  0  0  0  0
 10 12  1  0  0  0  0
 10 28  1  0  0  0  0
 10 29  1  0  0  0  0
 11 30  1  0  0  0  0
 11 31  1  0  0  0  0
 11 32  1  0  0  0  0
 12 16  1  0  0  0  0
 12 33  1  0  0  0  0
 12 34  1  0  0  0  0
 13 18  1  0  0  0  0
 13 35  1  0  0  0  0
 13 36  1  0  0  0  0
 14 16  2  0  0  0  0
 14 37  1  0  0  0  0
 15 38  1  0  0  0  0
 15 39  1  0  0  0  0
 15 40  1  0  0  0  0
 16 19  1  0  0  0  0
 17 41  1  0  0  0  0
 17 42  1  0  0  0  0
 17 43  1  0  0  0  0
 18 44  1  0  0  0  0
 18 45  1  0  0  0  0
 18 46  1  0  0  0  0
 19 47  1  0  0  0  0
 19 48  1  0  0  0  0
 19 49  1  0  0  0  0
M  END
> <PUBCHEM_COMPOUND_CID>
16070752

> <PUBCHEM_CONFORMER_RMSD>
0.6

> <PUBCHEM_CONFORMER_DIVERSEORDER>
4
83
105
100
51
97
55
46
48
75
94
68
39
54
49
47
66
23
62
78
96
91
64
106
33
65
70
81
76
38
84
7
107
37
102
92
79
63
18
45
101
67
42
89
73
85
43
6
44
31
90
103
71
53
22
61
36
69
20
99
57
28
72
95
35
15
27
59
98
56
30
58
74
24
5
52
87
12
9
16
104
8
13
80
60
21
11
3
88
40
26
93
32
19
17
2
41
77
82
14
1
50
34
86
10
29
25

> <PUBCHEM_MMFF94_PARTIAL_CHARGES>
11
1 -0.56
12 0.14
14 -0.29
16 -0.28
19 0.14
2 -0.56
37 0.15
6 0.56
7 0.28
8 0.28
9 0.14

> <PUBCHEM_EFFECTIVE_ROTOR_COUNT>
5

> <PUBCHEM_PHARMACOPHORE_FEATURES>
6
1 1 acceptor
1 15 hydrophobe
1 18 hydrophobe
1 2 acceptor
6 1 2 3 6 7 8 rings
6 4 9 10 12 14 16 rings

> <PUBCHEM_HEAVY_ATOM_COUNT>
19

> <PUBCHEM_ATOM_DEF_STEREO_COUNT>
0

> <PUBCHEM_ATOM_UDEF_STEREO_COUNT>
3

> <PUBCHEM_BOND_DEF_STEREO_COUNT>
0

> <PUBCHEM_BOND_UDEF_STEREO_COUNT>
0

> <PUBCHEM_ISOTOPIC_ATOM_COUNT>
0

> <PUBCHEM_COMPONENT_COUNT>
1

> <PUBCHEM_CACTVS_TAUTO_COUNT>
1

> <PUBCHEM_CONFORMER_ID>
00F5386000000004

> <PUBCHEM_MMFF94_ENERGY>
48.0471

> <PUBCHEM_FEATURE_SELFOVERLAP>
30.482

> <PUBCHEM_SHAPE_FINGERPRINT>
10366900 7 18408878568565903227
106641 1 16371019532658900497
11405975 8 18272083941555214146
11471102 20 14692568827811350874
11796584 16 17989212542903719534
12107183 9 17466495712221675992
12236239 1 18040156218656478311
12251169 10 18407758127657406685
12390115 104 18058179319435061625
12403259 415 17275101786165393298
12500047 106 18272368685282008023
12616971 3 17531235159034434114
12633257 1 18341886394374145209
128620 24 12179841701866855738
13533116 47 17631454462263066215
13583140 156 17560791165260147110
13760787 19 18410009940361495810
13760787 5 17095514102683730218
13897977 58 18334860515325850853
14251752 14 18343306929891996638
14252887 29 15647052638532305528
14341114 176 18342179985564562376
15048467 5 18259989288587035260
15209289 33 18113614607730487754
15209294 21 18334573529805742809
15242439 84 17418095420878122786
15375358 24 17275384304861270307
15788980 27 16702300169941217980
17834072 33 18187648033286122572
17834072 8 16988847172516480148
1813 80 16515973553633365078
18186145 218 18338223960081584768
19050596 39 18260824912543446403
19784866 170 18410860940949705671
19862831 5 12751234809436195501
200 152 15430034362036303725
20279233 1 17561089111473075671
20281475 54 18188196659550245210
20645477 56 18342740706777733303
20645477 70 15913055261767960356
20681677 155 18335704961377540970
21033648 29 16630232646023395810
21065198 48 17968093080011054161
21267235 1 18337116773627059523
21503847 285 18341047505963157080
2297311 6 18272661155105672173
23175994 123 16630812127063261584
23402539 116 18272367594069755375
23557571 272 17988369264265111855
23559900 14 18060427893553799142
23622692 88 18260550022089158909
2838139 119 14548472258862017779
300161 21 18114175350365864364
351380 180 18060134332507397129
3545911 37 18201722838092681893
4214541 1 18342739641283043415
474 4 17169560829305117516
5104073 3 18337385053815079480
542803 24 18113054939232053658
59755656 215 18059864922020052886
59755656 520 18131067113592321415
633830 44 18201146758899029532
9971528 1 13902183786389109322

> <PUBCHEM_SHAPE_MULTIPOLES>
379.27
12.13
1.61
1.16
3.03
0.45
-0.1
-2.4
-0.68
-1.88
0.07
1.07
0.08
-0.54

> <PUBCHEM_SHAPE_SELFOVERLAP>
765.781

> <PUBCHEM_SHAPE_VOLUME>
220.6

> <PUBCHEM_COORDINATE_TYPE>
2
5
10

$$$$
