16081708
  -OEChem-11232111213D

 37 37  0     1  0  0  0  0  0999 V2000
    0.1242    1.9797    0.9818 O   0  0  0  0  0  0  0  0  0  0  0  0
    0.1199   -0.4117    0.6112 C   0  0  2  0  0  0  0  0  0  0  0  0
    1.2732   -1.4287    0.6647 C   0  0  0  0  0  0  0  0  0  0  0  0
    2.2436   -1.2987   -0.5162 C   0  0  1  0  0  0  0  0  0  0  0  0
   -0.8079   -0.6579   -0.5878 C   0  0  0  0  0  0  0  0  0  0  0  0
    0.6977    1.0046    0.4948 C   0  0  0  0  0  0  0  0  0  0  0  0
   -0.6991   -0.5303    1.9079 C   0  0  0  0  0  0  0  0  0  0  0  0
    2.6186    0.1374   -0.7638 C   0  0  0  0  0  0  0  0  0  0  0  0
    1.9540    1.2049   -0.2955 C   0  0  0  0  0  0  0  0  0  0  0  0
    3.4911   -2.1481   -0.2609 C   0  0  0  0  0  0  0  0  0  0  0  0
   -1.9904    0.2573   -0.5414 C   0  0  0  0  0  0  0  0  0  0  0  0
    2.3925    2.6141   -0.5477 C   0  0  0  0  0  0  0  0  0  0  0  0
   -3.2889   -0.0820   -0.4315 C   0  0  0  0  0  0  0  0  0  0  0  0
   -4.4356    0.8879   -0.3901 C   0  0  0  0  0  0  0  0  0  0  0  0
   -3.6930   -1.5285   -0.3255 C   0  0  0  0  0  0  0  0  0  0  0  0
    0.8761   -2.4518    0.6994 H   0  0  0  0  0  0  0  0  0  0  0  0
    1.8328   -1.2862    1.6008 H   0  0  0  0  0  0  0  0  0  0  0  0
    1.7647   -1.6816   -1.4259 H   0  0  0  0  0  0  0  0  0  0  0  0
   -0.2884   -0.4685   -1.5351 H   0  0  0  0  0  0  0  0  0  0  0  0
   -1.0955   -1.7130   -0.6075 H   0  0  0  0  0  0  0  0  0  0  0  0
   -1.1840   -1.5104    1.9826 H   0  0  0  0  0  0  0  0  0  0  0  0
   -0.0486   -0.4194    2.7843 H   0  0  0  0  0  0  0  0  0  0  0  0
   -1.4705    0.2402    2.0110 H   0  0  0  0  0  0  0  0  0  0  0  0
    3.5010    0.3046   -1.3786 H   0  0  0  0  0  0  0  0  0  0  0  0
    4.0434   -1.7988    0.6189 H   0  0  0  0  0  0  0  0  0  0  0  0
    3.2187   -3.1961   -0.0955 H   0  0  0  0  0  0  0  0  0  0  0  0
    4.1718   -2.1136   -1.1190 H   0  0  0  0  0  0  0  0  0  0  0  0
   -1.7733    1.3187   -0.6476 H   0  0  0  0  0  0  0  0  0  0  0  0
    1.6119    3.1682   -1.0792 H   0  0  0  0  0  0  0  0  0  0  0  0
    3.3026    2.6583   -1.1551 H   0  0  0  0  0  0  0  0  0  0  0  0
    2.6002    3.1247    0.3983 H   0  0  0  0  0  0  0  0  0  0  0  0
   -5.1087    0.7217   -1.2372 H   0  0  0  0  0  0  0  0  0  0  0  0
   -5.0024    0.7683    0.5389 H   0  0  0  0  0  0  0  0  0  0  0  0
   -4.0877    1.9251   -0.4378 H   0  0  0  0  0  0  0  0  0  0  0  0
   -3.6061   -1.8739    0.7094 H   0  0  0  0  0  0  0  0  0  0  0  0
   -3.1079   -2.1813   -0.9790 H   0  0  0  0  0  0  0  0  0  0  0  0
   -4.7368   -1.6603   -0.6332 H   0  0  0  0  0  0  0  0  0  0  0  0
  1  6  2  0  0  0  0
  2  3  1  0  0  0  0
  2  5  1  0  0  0  0
  2  6  1  0  0  0  0
  2  7  1  0  0  0  0
  3  4  1  0  0  0  0
  3 16  1  0  0  0  0
  3 17  1  0  0  0  0
  4  8  1  0  0  0  0
  4 10  1  0  0  0  0
  4 18  1  0  0  0  0
  5 11  1  0  0  0  0
  5 19  1  0  0  0  0
  5 20  1  0  0  0  0
  6  9  1  0  0  0  0
  7 21  1  0  0  0  0
  7 22  1  0  0  0  0
  7 23  1  0  0  0  0
  8  9  2  0  0  0  0
  8 24  1  0  0  0  0
  9 12  1  0  0  0  0
 10 25  1  0  0  0  0
 10 26  1  0  0  0  0
 10 27  1  0  0  0  0
 11 13  2  0  0  0  0
 11 28  1  0  0  0  0
 12 29  1  0  0  0  0
 12 30  1  0  0  0  0
 12 31  1  0  0  0  0
 13 14  1  0  0  0  0
 13 15  1  0  0  0  0
 14 32  1  0  0  0  0
 14 33  1  0  0  0  0
 14 34  1  0  0  0  0
 15 35  1  0  0  0  0
 15 36  1  0  0  0  0
 15 37  1  0  0  0  0
M  END
> <PUBCHEM_COMPOUND_CID>
16081708

> <PUBCHEM_CONFORMER_RMSD>
0.6

> <PUBCHEM_CONFORMER_DIVERSEORDER>
4
29
16
36
12
30
24
20
39
23
6
33
18
8
22
27
34
17
7
21
9
15
5
25
26
2
38
35
11
28
37
19
31
13
3
1
32
10
14

> <PUBCHEM_MMFF94_PARTIAL_CHARGES>
14
1 -0.57
11 -0.29
12 0.14
13 -0.28
14 0.14
15 0.14
2 0.06
24 0.15
28 0.15
4 0.14
5 0.14
6 0.49
8 -0.29
9 -0.12

> <PUBCHEM_EFFECTIVE_ROTOR_COUNT>
2.6

> <PUBCHEM_PHARMACOPHORE_FEATURES>
3
1 1 acceptor
3 13 14 15 hydrophobe
6 2 3 4 6 8 9 rings

> <PUBCHEM_HEAVY_ATOM_COUNT>
15

> <PUBCHEM_ATOM_DEF_STEREO_COUNT>
0

> <PUBCHEM_ATOM_UDEF_STEREO_COUNT>
2

> <PUBCHEM_BOND_DEF_STEREO_COUNT>
0

> <PUBCHEM_BOND_UDEF_STEREO_COUNT>
0

> <PUBCHEM_ISOTOPIC_ATOM_COUNT>
0

> <PUBCHEM_COMPONENT_COUNT>
1

> <PUBCHEM_CACTVS_TAUTO_COUNT>
3

> <PUBCHEM_CONFORMER_ID>
00F5632C00000004

> <PUBCHEM_MMFF94_ENERGY>
28.654

> <PUBCHEM_FEATURE_SELFOVERLAP>
15.223

> <PUBCHEM_SHAPE_FINGERPRINT>
11031198 65 18266181814645420781
11471102 20 18408882910556156901
116883 192 17913778219000218149
12932764 1 17489018400842318087
13464514 151 18335424611919781500
13705890 14 18343299283932532623
14115302 16 17632291268126696559
15219456 202 18115315595257909859
15502722 9 18339080505108680966
16945 1 18187357680010676187
18186145 218 17748823003870152655
19422 9 18342458153732745359
20339313 130 18201999910928523623
20645477 70 18413103970445649031
20671657 53 18268151968042542702
20708731 107 18340482356616844662
20820808 20 18337390555784437288
21501502 16 18338793532869535719
21524375 3 17754162395301056788
21947302 44 18114179795572723536
22112679 90 17274002197117345616
221490 88 18336271240089131939
22802520 49 18113627814796880305
23114952 82 18187936092194555772
23402539 116 17531236279772718764
23402655 69 18408604738710165701
23419403 2 17606999232164716248
23526113 38 18186525384500919426
23557571 272 17417248693998403800
25 1 18263926699328193964
2748010 2 17834420169108371692
276578 36 15574709188297727305
3323516 105 18334018319399440383
5337951 7 18040718060561208290
633830 44 17894346683705499783
7364860 26 18341888619372887060
81228 2 17909840838112911842
84936 182 18129381669050786128
93112 12 18410008823817542775

> <PUBCHEM_SHAPE_MULTIPOLES>
302.82
6.39
2.28
1.14
5.84
0.71
-0.48
-0.95
2.13
-2.04
0.11
0.07
-0.07
-0.03

> <PUBCHEM_SHAPE_SELFOVERLAP>
606.718

> <PUBCHEM_SHAPE_VOLUME>
179.7

> <PUBCHEM_COORDINATE_TYPE>
2
5
10

$$$$
