16081707
  -OEChem-11232109473D

 34 35  0     1  0  0  0  0  0999 V2000
   -0.3925   -0.9941    1.4956 O   0  0  0  0  0  0  0  0  0  0  0  0
   -0.8853    1.0594    0.3122 C   0  0  2  0  0  0  0  0  0  0  0  0
   -2.2294    1.7393    0.0014 C   0  0  0  0  0  0  0  0  0  0  0  0
    0.0592    1.0840   -0.8990 C   0  0  0  0  0  0  0  0  0  0  0  0
   -1.1299   -0.4047    0.7046 C   0  0  0  0  0  0  0  0  0  0  0  0
   -3.0499    0.9821   -1.0370 C   0  0  0  0  0  0  0  0  0  0  0  0
   -0.2179    1.8028    1.4816 C   0  0  0  0  0  0  0  0  0  0  0  0
   -2.2544   -1.1473    0.0495 C   0  0  0  0  0  0  0  0  0  0  0  0
   -3.0960   -0.4874   -0.7602 C   0  0  0  0  0  0  0  0  0  0  0  0
    1.3723    0.4343   -0.5773 C   0  0  0  0  0  0  0  0  0  0  0  0
   -2.3653   -2.6149    0.3225 C   0  0  0  0  0  0  0  0  0  0  0  0
    2.4212    1.1977   -0.0647 C   0  0  0  0  0  0  0  0  0  0  0  0
    1.5446   -0.9332   -0.7911 C   0  0  0  0  0  0  0  0  0  0  0  0
    3.6425    0.5935    0.2340 C   0  0  0  0  0  0  0  0  0  0  0  0
    2.7658   -1.5374   -0.4923 C   0  0  0  0  0  0  0  0  0  0  0  0
    3.8148   -0.7740    0.0202 C   0  0  0  0  0  0  0  0  0  0  0  0
   -2.0716    2.7698   -0.3407 H   0  0  0  0  0  0  0  0  0  0  0  0
   -2.8259    1.8077    0.9223 H   0  0  0  0  0  0  0  0  0  0  0  0
    0.2303    2.1164   -1.2326 H   0  0  0  0  0  0  0  0  0  0  0  0
   -0.3801    0.5694   -1.7629 H   0  0  0  0  0  0  0  0  0  0  0  0
   -2.6511    1.1462   -2.0443 H   0  0  0  0  0  0  0  0  0  0  0  0
   -4.0717    1.3795   -1.0345 H   0  0  0  0  0  0  0  0  0  0  0  0
   -0.9253    1.9111    2.3139 H   0  0  0  0  0  0  0  0  0  0  0  0
    0.6430    1.2786    1.9073 H   0  0  0  0  0  0  0  0  0  0  0  0
    0.0910    2.8133    1.1915 H   0  0  0  0  0  0  0  0  0  0  0  0
   -3.8896   -1.0381   -1.2600 H   0  0  0  0  0  0  0  0  0  0  0  0
   -1.4502   -3.1313    0.0145 H   0  0  0  0  0  0  0  0  0  0  0  0
   -3.2014   -3.0706   -0.2186 H   0  0  0  0  0  0  0  0  0  0  0  0
   -2.5243   -2.7940    1.3909 H   0  0  0  0  0  0  0  0  0  0  0  0
    2.3091    2.2666    0.0952 H   0  0  0  0  0  0  0  0  0  0  0  0
    0.7434   -1.5408   -1.2030 H   0  0  0  0  0  0  0  0  0  0  0  0
    4.4604    1.1884    0.6300 H   0  0  0  0  0  0  0  0  0  0  0  0
    2.9011   -2.6016   -0.6617 H   0  0  0  0  0  0  0  0  0  0  0  0
    4.7662   -1.2441    0.2513 H   0  0  0  0  0  0  0  0  0  0  0  0
  1  5  2  0  0  0  0
  2  3  1  0  0  0  0
  2  4  1  0  0  0  0
  2  5  1  0  0  0  0
  2  7  1  0  0  0  0
  3  6  1  0  0  0  0
  3 17  1  0  0  0  0
  3 18  1  0  0  0  0
  4 10  1  0  0  0  0
  4 19  1  0  0  0  0
  4 20  1  0  0  0  0
  5  8  1  0  0  0  0
  6  9  1  0  0  0  0
  6 21  1  0  0  0  0
  6 22  1  0  0  0  0
  7 23  1  0  0  0  0
  7 24  1  0  0  0  0
  7 25  1  0  0  0  0
  8  9  2  0  0  0  0
  8 11  1  0  0  0  0
  9 26  1  0  0  0  0
 10 12  2  0  0  0  0
 10 13  1  0  0  0  0
 11 27  1  0  0  0  0
 11 28  1  0  0  0  0
 11 29  1  0  0  0  0
 12 14  1  0  0  0  0
 12 30  1  0  0  0  0
 13 15  2  0  0  0  0
 13 31  1  0  0  0  0
 14 16  2  0  0  0  0
 14 32  1  0  0  0  0
 15 16  1  0  0  0  0
 15 33  1  0  0  0  0
 16 34  1  0  0  0  0
M  END
> <PUBCHEM_COMPOUND_CID>
16081707

> <PUBCHEM_CONFORMER_RMSD>
0.6

> <PUBCHEM_CONFORMER_DIVERSEORDER>
2
8
6
10
3
7
9
5
1
4

> <PUBCHEM_MMFF94_PARTIAL_CHARGES>
20
1 -0.57
10 -0.14
11 0.14
12 -0.15
13 -0.15
14 -0.15
15 -0.15
16 -0.15
2 0.06
26 0.15
30 0.15
31 0.15
32 0.15
33 0.15
34 0.15
4 0.14
5 0.49
6 0.14
8 -0.12
9 -0.29

> <PUBCHEM_EFFECTIVE_ROTOR_COUNT>
2.6

> <PUBCHEM_PHARMACOPHORE_FEATURES>
3
1 1 acceptor
6 10 12 13 14 15 16 rings
6 2 3 5 6 8 9 rings

> <PUBCHEM_HEAVY_ATOM_COUNT>
16

> <PUBCHEM_ATOM_DEF_STEREO_COUNT>
0

> <PUBCHEM_ATOM_UDEF_STEREO_COUNT>
1

> <PUBCHEM_BOND_DEF_STEREO_COUNT>
0

> <PUBCHEM_BOND_UDEF_STEREO_COUNT>
0

> <PUBCHEM_ISOTOPIC_ATOM_COUNT>
0

> <PUBCHEM_COMPONENT_COUNT>
1

> <PUBCHEM_CACTVS_TAUTO_COUNT>
3

> <PUBCHEM_CONFORMER_ID>
00F5632B00000002

> <PUBCHEM_MMFF94_ENERGY>
39.8687

> <PUBCHEM_FEATURE_SELFOVERLAP>
15.223

> <PUBCHEM_SHAPE_FINGERPRINT>
10922523 26 18186523206714818199
12500047 106 18335697187618532652
12592029 89 17459471044375069801
12716758 59 18409725145369550305
13024252 1 14490486274317482677
13296908 3 18410860975066837950
13693222 15 18272657856871443098
13764800 53 13541914442786745667
14115302 16 18334017211408537813
14713566 1 18337952277413992433
15775835 57 17749952137565433740
16945 1 18410019831428449093
17834072 14 18411410726727994930
18186145 218 18262515871180067597
19868273 293 16805321072058001453
200 152 17988635277306660004
20201158 50 18412261731395115142
20525323 117 17703799084727992401
21061003 4 17631742697654892193
21296965 12 8142093048120204649
21452121 199 17829883588020998923
21501502 16 18336272305399023668
22802520 49 18263922318756684753
23402539 116 18341321207117504021
23419403 2 18055049202650338345
23559900 14 18411973655618276960
2748010 2 18411710893223205350
296302 2 17847061103304464281
5493415 88 18198902693862566801
57812782 119 18412539907974040516
69090 78 18338233769776242061
74978 22 16298680467991638900
81228 2 17702121169839068913
8809292 202 18409451383837767582
9709674 26 18341896268588588646

> <PUBCHEM_SHAPE_MULTIPOLES>
323.4
5.85
2.18
1.13
3.04
0.6
-0.2
1.16
0.94
-1.04
-0.34
-0.32
-0.17
0.47

> <PUBCHEM_SHAPE_SELFOVERLAP>
685.077

> <PUBCHEM_SHAPE_VOLUME>
179.8

> <PUBCHEM_COORDINATE_TYPE>
2
5
10

$$$$
