161675
  -OEChem-11232108413D

 35 37  0     1  0  0  0  0  0999 V2000
   -2.2588   -0.0178   -0.2051 O   0  0  0  0  0  0  0  0  0  0  0  0
   -4.2066    0.6251    0.8579 O   0  0  0  0  0  0  0  0  0  0  0  0
    0.6115    0.1690    0.0072 C   0  0  2  0  0  0  0  0  0  0  0  0
    1.5793   -0.6914   -0.8455 C   0  0  1  0  0  0  0  0  0  0  0  0
    1.5782    1.0197    0.8603 C   0  0  1  0  0  0  0  0  0  0  0  0
    2.9698   -0.2210   -0.3716 C   0  0  2  0  0  0  0  0  0  0  0  0
    2.7469    0.0633    1.1162 C   0  0  0  0  0  0  0  0  0  0  0  0
   -0.2485   -0.8298    0.7982 C   0  0  2  0  0  0  0  0  0  0  0  0
    2.2474    2.0583   -0.0609 C   0  0  0  0  0  0  0  0  0  0  0  0
    3.2053    1.2038   -0.9095 C   0  0  0  0  0  0  0  0  0  0  0  0
    1.2354   -2.1480   -0.5308 C   0  0  0  0  0  0  0  0  0  0  0  0
   -0.2119   -2.0920   -0.0618 C   0  0  0  0  0  0  0  0  0  0  0  0
   -1.6627   -0.3258    1.0433 C   0  0  0  0  0  0  0  0  0  0  0  0
   -3.5440    0.4525   -0.1562 C   0  0  0  0  0  0  0  0  0  0  0  0
   -4.0412    0.7343   -1.5417 C   0  0  0  0  0  0  0  0  0  0  0  0
    0.0030    0.8074   -0.6436 H   0  0  0  0  0  0  0  0  0  0  0  0
    1.4303   -0.5007   -1.9151 H   0  0  0  0  0  0  0  0  0  0  0  0
    1.1224    1.4563    1.7512 H   0  0  0  0  0  0  0  0  0  0  0  0
    3.7804   -0.9151   -0.6027 H   0  0  0  0  0  0  0  0  0  0  0  0
    2.4778   -0.8210    1.6995 H   0  0  0  0  0  0  0  0  0  0  0  0
    3.6043    0.5525    1.5919 H   0  0  0  0  0  0  0  0  0  0  0  0
    0.2073   -1.0493    1.7717 H   0  0  0  0  0  0  0  0  0  0  0  0
    2.8158    2.7893    0.5253 H   0  0  0  0  0  0  0  0  0  0  0  0
    1.5262    2.6040   -0.6776 H   0  0  0  0  0  0  0  0  0  0  0  0
    2.9955    1.2910   -1.9802 H   0  0  0  0  0  0  0  0  0  0  0  0
    4.2411    1.5185   -0.7383 H   0  0  0  0  0  0  0  0  0  0  0  0
    1.8759   -2.5566    0.2589 H   0  0  0  0  0  0  0  0  0  0  0  0
    1.3523   -2.7900   -1.4096 H   0  0  0  0  0  0  0  0  0  0  0  0
   -0.8788   -2.0183   -0.9288 H   0  0  0  0  0  0  0  0  0  0  0  0
   -0.4915   -2.9854    0.5050 H   0  0  0  0  0  0  0  0  0  0  0  0
   -1.6329    0.5747    1.6681 H   0  0  0  0  0  0  0  0  0  0  0  0
   -2.2515   -1.0964    1.5548 H   0  0  0  0  0  0  0  0  0  0  0  0
   -4.0354   -0.1860   -2.1310 H   0  0  0  0  0  0  0  0  0  0  0  0
   -3.4148    1.4967   -2.0115 H   0  0  0  0  0  0  0  0  0  0  0  0
   -5.0675    1.1091   -1.4900 H   0  0  0  0  0  0  0  0  0  0  0  0
  1 13  1  0  0  0  0
  1 14  1  0  0  0  0
  2 14  2  0  0  0  0
  3  4  1  0  0  0  0
  3  5  1  0  0  0  0
  3  8  1  0  0  0  0
  3 16  1  0  0  0  0
  4  6  1  0  0  0  0
  4 11  1  0  0  0  0
  4 17  1  0  0  0  0
  5  7  1  0  0  0  0
  5  9  1  0  0  0  0
  5 18  1  0  0  0  0
  6  7  1  0  0  0  0
  6 10  1  0  0  0  0
  6 19  1  0  0  0  0
  7 20  1  0  0  0  0
  7 21  1  0  0  0  0
  8 12  1  0  0  0  0
  8 13  1  0  0  0  0
  8 22  1  0  0  0  0
  9 10  1  0  0  0  0
  9 23  1  0  0  0  0
  9 24  1  0  0  0  0
 10 25  1  0  0  0  0
 10 26  1  0  0  0  0
 11 12  1  0  0  0  0
 11 27  1  0  0  0  0
 11 28  1  0  0  0  0
 12 29  1  0  0  0  0
 12 30  1  0  0  0  0
 13 31  1  0  0  0  0
 13 32  1  0  0  0  0
 14 15  1  0  0  0  0
 15 33  1  0  0  0  0
 15 34  1  0  0  0  0
 15 35  1  0  0  0  0
M  END
> <PUBCHEM_COMPOUND_CID>
161675

> <PUBCHEM_CONFORMER_RMSD>
0.6

> <PUBCHEM_CONFORMER_DIVERSEORDER>
1
104
16
123
51
76
14
71
105
118
50
25
126
5
24
26
107
121
81
32
35
43
22
98
103
49
55
129
69
113
110
100
130
102
13
53
21
85
80
54
52
108
36
128
97
73
6
12
78
116
86
56
60
112
64
47
94
9
40
77
115
45
33
124
84
17
8
39
59
99
46
70
57
58
30
72
42
125
41
93
117
120
68
87
67
44
101
2
92
109
61
31
4
7
111
34
23
90
66
114
38
48
75
91
11
29
10
88
122
83
3
89
15
95
119
79
74
65
82
20
106
37
62
63
127
28
96
27
19
18

> <PUBCHEM_MMFF94_PARTIAL_CHARGES>
5
1 -0.43
13 0.28
14 0.66
15 0.06
2 -0.57

> <PUBCHEM_EFFECTIVE_ROTOR_COUNT>
4.2

> <PUBCHEM_PHARMACOPHORE_FEATURES>
3
1 2 acceptor
5 3 4 8 11 12 rings
7 3 4 5 6 7 9 10 rings

> <PUBCHEM_HEAVY_ATOM_COUNT>
15

> <PUBCHEM_ATOM_DEF_STEREO_COUNT>
0

> <PUBCHEM_ATOM_UDEF_STEREO_COUNT>
5

> <PUBCHEM_BOND_DEF_STEREO_COUNT>
0

> <PUBCHEM_BOND_UDEF_STEREO_COUNT>
0

> <PUBCHEM_ISOTOPIC_ATOM_COUNT>
0

> <PUBCHEM_COMPONENT_COUNT>
1

> <PUBCHEM_CACTVS_TAUTO_COUNT>
1

> <PUBCHEM_CONFORMER_ID>
0002778B00000001

> <PUBCHEM_MMFF94_ENERGY>
45.9051

> <PUBCHEM_FEATURE_SELFOVERLAP>
15.288

> <PUBCHEM_SHAPE_FINGERPRINT>
11031198 65 18413114952397176751
11543360 7 15267060388690385985
11615756 56 18186793665338213749
11769659 78 12247141679232549236
12138202 97 18269561700689165534
12251169 10 12107790722163037737
12654215 9 18408886196427697214
12730499 353 18335991896054146451
13134695 92 18118948218594009422
13705890 14 14045741542969440816
14350558 41 12103575181618270672
14911166 2 18272385169682546518
15061688 2 17416949803040194968
15279308 100 18267593579418086652
15775835 57 18187929520630705296
16945 1 18200894936476841626
18186145 218 18343022190043743645
19862831 5 17203615878112814969
20233049 118 18113617872206488316
20281407 28 11095883774346657713
20281475 54 11312055478534510933
21069387 34 15338576976337587284
21524375 3 18336540607537016051
21639500 275 18341890796831654785
21947302 44 18409452444726377147
231179 274 18040718077973250916
23402539 116 17846495920147423200
23402655 69 17917434177157569225
23557571 272 17603592911494173389
23559900 14 17916042320903635684
23598291 2 17559117567039423311
25 1 18412833481573002027
2748010 2 17913502508354843706
3060560 45 18272084976668875254
3082319 5 17418371368537846157
4047638 21 18334018293471238313
633830 44 18059585697463799461
81228 2 17619059972762936443

> <PUBCHEM_SHAPE_MULTIPOLES>
296.95
6.59
1.86
1.2
7.34
0.53
-0.05
-3.19
-1.15
-0.98
-0.28
0.33
-0.12
0.3

> <PUBCHEM_SHAPE_SELFOVERLAP>
632.692

> <PUBCHEM_SHAPE_VOLUME>
172.3

> <PUBCHEM_COORDINATE_TYPE>
2
5
10

$$$$
