1616260
  -OEChem-11232109473D

 34 34  0     0  0  0  0  0  0999 V2000
   -1.5473   -0.4451   -1.4741 O   0  0  0  0  0  0  0  0  0  0  0  0
    0.8381    1.2050    0.0449 C   0  0  0  0  0  0  0  0  0  0  0  0
    2.3079    1.2415    0.5443 C   0  0  0  0  0  0  0  0  0  0  0  0
    3.1664    0.1714   -0.1106 C   0  0  0  0  0  0  0  0  0  0  0  0
    0.3185   -0.2343   -0.0553 C   0  0  0  0  0  0  0  0  0  0  0  0
    2.6094   -1.2128    0.1985 C   0  0  0  0  0  0  0  0  0  0  0  0
    1.1065   -1.3288    0.0483 C   0  0  0  0  0  0  0  0  0  0  0  0
    0.7546    1.8754   -1.3429 C   0  0  0  0  0  0  0  0  0  0  0  0
    0.0130    2.0413    1.0487 C   0  0  0  0  0  0  0  0  0  0  0  0
   -1.1227   -0.4104   -0.3289 C   0  0  0  0  0  0  0  0  0  0  0  0
    0.6355   -2.7623    0.0339 C   0  0  0  0  0  0  0  0  0  0  0  0
   -1.9674   -0.5349    0.8820 C   0  0  0  0  0  0  0  0  0  0  0  0
   -3.2370   -0.1084    0.8578 C   0  0  0  0  0  0  0  0  0  0  0  0
   -3.8755    0.5024   -0.3466 C   0  0  0  0  0  0  0  0  0  0  0  0
    2.3385    1.0899    1.6325 H   0  0  0  0  0  0  0  0  0  0  0  0
    2.7513    2.2285    0.3614 H   0  0  0  0  0  0  0  0  0  0  0  0
    4.1970    0.2417    0.2557 H   0  0  0  0  0  0  0  0  0  0  0  0
    3.2081    0.3261   -1.1951 H   0  0  0  0  0  0  0  0  0  0  0  0
    2.8738   -1.4893    1.2272 H   0  0  0  0  0  0  0  0  0  0  0  0
    3.1060   -1.9337   -0.4626 H   0  0  0  0  0  0  0  0  0  0  0  0
    1.1975    2.8779   -1.3241 H   0  0  0  0  0  0  0  0  0  0  0  0
    1.2796    1.2940   -2.1089 H   0  0  0  0  0  0  0  0  0  0  0  0
   -0.2841    1.9906   -1.6735 H   0  0  0  0  0  0  0  0  0  0  0  0
   -0.0300    1.5596    2.0324 H   0  0  0  0  0  0  0  0  0  0  0  0
    0.4570    3.0345    1.1865 H   0  0  0  0  0  0  0  0  0  0  0  0
   -1.0137    2.2009    0.7021 H   0  0  0  0  0  0  0  0  0  0  0  0
    0.9219   -3.2602    0.9662 H   0  0  0  0  0  0  0  0  0  0  0  0
    1.0947   -3.3011   -0.8017 H   0  0  0  0  0  0  0  0  0  0  0  0
   -0.4473   -2.8650   -0.0718 H   0  0  0  0  0  0  0  0  0  0  0  0
   -1.5279   -0.9176    1.7963 H   0  0  0  0  0  0  0  0  0  0  0  0
   -3.8376   -0.1947    1.7588 H   0  0  0  0  0  0  0  0  0  0  0  0
   -4.1732   -0.2650   -1.0673 H   0  0  0  0  0  0  0  0  0  0  0  0
   -4.7873    1.0258   -0.0367 H   0  0  0  0  0  0  0  0  0  0  0  0
   -3.2426    1.2549   -0.8263 H   0  0  0  0  0  0  0  0  0  0  0  0
  1 10  2  0  0  0  0
  2  3  1  0  0  0  0
  2  5  1  0  0  0  0
  2  8  1  0  0  0  0
  2  9  1  0  0  0  0
  3  4  1  0  0  0  0
  3 15  1  0  0  0  0
  3 16  1  0  0  0  0
  4  6  1  0  0  0  0
  4 17  1  0  0  0  0
  4 18  1  0  0  0  0
  5  7  2  0  0  0  0
  5 10  1  0  0  0  0
  6  7  1  0  0  0  0
  6 19  1  0  0  0  0
  6 20  1  0  0  0  0
  7 11  1  0  0  0  0
  8 21  1  0  0  0  0
  8 22  1  0  0  0  0
  8 23  1  0  0  0  0
  9 24  1  0  0  0  0
  9 25  1  0  0  0  0
  9 26  1  0  0  0  0
 10 12  1  0  0  0  0
 11 27  1  0  0  0  0
 11 28  1  0  0  0  0
 11 29  1  0  0  0  0
 12 13  2  0  0  0  0
 12 30  1  0  0  0  0
 13 14  1  0  0  0  0
 13 31  1  0  0  0  0
 14 32  1  0  0  0  0
 14 33  1  0  0  0  0
 14 34  1  0  0  0  0
M  END
> <PUBCHEM_COMPOUND_CID>
1616260

> <PUBCHEM_CONFORMER_RMSD>
0.6

> <PUBCHEM_CONFORMER_DIVERSEORDER>
2
5
1
4
3

> <PUBCHEM_MMFF94_PARTIAL_CHARGES>
12
1 -0.57
10 0.54
11 0.14
12 -0.14
13 -0.29
14 0.14
2 0.14
30 0.15
31 0.15
5 -0.12
6 0.14
7 -0.28

> <PUBCHEM_EFFECTIVE_ROTOR_COUNT>
2.8

> <PUBCHEM_PHARMACOPHORE_FEATURES>
4
1 1 acceptor
1 14 hydrophobe
3 2 8 9 hydrophobe
6 2 3 4 5 6 7 rings

> <PUBCHEM_HEAVY_ATOM_COUNT>
14

> <PUBCHEM_ATOM_DEF_STEREO_COUNT>
0

> <PUBCHEM_ATOM_UDEF_STEREO_COUNT>
0

> <PUBCHEM_BOND_DEF_STEREO_COUNT>
1

> <PUBCHEM_BOND_UDEF_STEREO_COUNT>
0

> <PUBCHEM_ISOTOPIC_ATOM_COUNT>
0

> <PUBCHEM_COMPONENT_COUNT>
1

> <PUBCHEM_CACTVS_TAUTO_COUNT>
13

> <PUBCHEM_CONFORMER_ID>
0018A98400000002

> <PUBCHEM_MMFF94_ENERGY>
34.5503

> <PUBCHEM_FEATURE_SELFOVERLAP>
20.297

> <PUBCHEM_SHAPE_FINGERPRINT>
10219947 1 18409169908845050738
10353120 184 18341629083152304678
104564 63 18198069070891547056
10980938 120 18412826867476412035
11471102 20 18410289190180857967
11680986 33 17620465814537992866
12423570 1 13649215469256848812
12491281 212 17202777023691871664
12654215 9 18334851680219426845
13132413 78 18272373083096657280
13172582 1 18337943584611220842
13571099 22 18411983546400282873
14251717 144 18411975862820120767
14648413 74 17822581628227264565
14993402 34 17775283854904062749
15219456 202 18114179726921714677
15775835 57 18059296573234626729
161256 15 18267869389253656758
16945 1 18272366443292923746
17844478 74 18040155097844230357
193761 8 17762904268861439170
20201158 50 18261394408137913547
20511035 2 18194688304748830266
21501502 16 18050291358149106216
22802520 49 17898834765088801677
23402539 116 18343295981841115046
23419403 2 15735353197540928138
23493267 7 17386275494282960704
2748010 2 18267029534084578506
5084963 1 17755286104652908279
528886 8 18411979187003248426
53655031 270 18271529706290974320
568465 68 18335994158721060147
63268167 104 18272932755984165993
77492 1 17704349974671728735
81228 2 17686348563821401898

> <PUBCHEM_SHAPE_MULTIPOLES>
282.24
4.8
2.25
1.09
3.26
0.5
-0.17
-0.1
0.34
-1.15
0.04
0.33
-0.35
0.01

> <PUBCHEM_SHAPE_SELFOVERLAP>
567.672

> <PUBCHEM_SHAPE_VOLUME>
166.1

> <PUBCHEM_COORDINATE_TYPE>
2
5
10

$$$$
