161949
  -OEChem-11232108473D

 43 43  0     0  0  0  0  0  0999 V2000
   -3.1826   -0.4013   -0.5623 O   0  0  0  0  0  0  0  0  0  0  0  0
   -2.1083   -0.0217    0.3106 C   0  0  0  0  0  0  0  0  0  0  0  0
   -1.2232    0.9855   -0.4546 C   0  0  0  0  0  0  0  0  0  0  0  0
   -1.4019   -1.3146    0.8033 C   0  0  0  0  0  0  0  0  0  0  0  0
   -0.0135    1.5034    0.3305 C   0  0  0  0  0  0  0  0  0  0  0  0
   -0.7280   -2.2211   -0.2446 C   0  0  0  0  0  0  0  0  0  0  0  0
    1.0291    2.1508   -0.5868 C   0  0  0  0  0  0  0  0  0  0  0  0
    0.6941   -1.8476   -0.6845 C   0  0  0  0  0  0  0  0  0  0  0  0
    2.4181    2.2949    0.0548 C   0  0  0  0  0  0  0  0  0  0  0  0
    1.7436   -1.9336    0.4300 C   0  0  0  0  0  0  0  0  0  0  0  0
   -2.7738    0.6651    1.5128 C   0  0  0  0  0  0  0  0  0  0  0  0
    3.0585    0.9933    0.5641 C   0  0  0  0  0  0  0  0  0  0  0  0
    3.1539   -1.5119   -0.0169 C   0  0  0  0  0  0  0  0  0  0  0  0
    3.2866   -0.0673   -0.5213 C   0  0  0  0  0  0  0  0  0  0  0  0
   -3.9524    0.7261   -0.9351 C   0  0  0  0  0  0  0  0  0  0  0  0
   -1.7757    1.8880   -0.7370 H   0  0  0  0  0  0  0  0  0  0  0  0
   -0.9188    0.5372   -1.4074 H   0  0  0  0  0  0  0  0  0  0  0  0
   -2.1832   -1.9372    1.2645 H   0  0  0  0  0  0  0  0  0  0  0  0
   -0.7012   -1.0868    1.6121 H   0  0  0  0  0  0  0  0  0  0  0  0
    0.4338    0.6763    0.8766 H   0  0  0  0  0  0  0  0  0  0  0  0
   -0.3359    2.2303    1.0856 H   0  0  0  0  0  0  0  0  0  0  0  0
   -1.3669   -2.2800   -1.1338 H   0  0  0  0  0  0  0  0  0  0  0  0
   -0.6895   -3.2384    0.1669 H   0  0  0  0  0  0  0  0  0  0  0  0
    0.6719    3.1462   -0.8791 H   0  0  0  0  0  0  0  0  0  0  0  0
    1.1199    1.5841   -1.5192 H   0  0  0  0  0  0  0  0  0  0  0  0
    0.6885   -0.8566   -1.1344 H   0  0  0  0  0  0  0  0  0  0  0  0
    0.9906   -2.5368   -1.4858 H   0  0  0  0  0  0  0  0  0  0  0  0
    2.3445    2.9944    0.8969 H   0  0  0  0  0  0  0  0  0  0  0  0
    3.0917    2.7591   -0.6760 H   0  0  0  0  0  0  0  0  0  0  0  0
    1.7941   -2.9716    0.7823 H   0  0  0  0  0  0  0  0  0  0  0  0
    1.4448   -1.3386    1.2959 H   0  0  0  0  0  0  0  0  0  0  0  0
   -3.0433    1.7101    1.3237 H   0  0  0  0  0  0  0  0  0  0  0  0
   -3.6749    0.1327    1.8397 H   0  0  0  0  0  0  0  0  0  0  0  0
   -2.0847    0.6979    2.3655 H   0  0  0  0  0  0  0  0  0  0  0  0
    2.4713    0.5997    1.3977 H   0  0  0  0  0  0  0  0  0  0  0  0
    4.0330    1.2443    1.0035 H   0  0  0  0  0  0  0  0  0  0  0  0
    3.4825   -2.1877   -0.8164 H   0  0  0  0  0  0  0  0  0  0  0  0
    3.8469   -1.6627    0.8200 H   0  0  0  0  0  0  0  0  0  0  0  0
    2.6314    0.0768   -1.3827 H   0  0  0  0  0  0  0  0  0  0  0  0
    4.3039    0.0650   -0.9125 H   0  0  0  0  0  0  0  0  0  0  0  0
   -3.4444    1.3790   -1.6485 H   0  0  0  0  0  0  0  0  0  0  0  0
   -4.4066    1.2850   -0.1155 H   0  0  0  0  0  0  0  0  0  0  0  0
   -4.8054    0.3264   -1.4976 H   0  0  0  0  0  0  0  0  0  0  0  0
  1  2  1  0  0  0  0
  1 15  1  0  0  0  0
  2  3  1  0  0  0  0
  2  4  1  0  0  0  0
  2 11  1  0  0  0  0
  3  5  1  0  0  0  0
  3 16  1  0  0  0  0
  3 17  1  0  0  0  0
  4  6  1  0  0  0  0
  4 18  1  0  0  0  0
  4 19  1  0  0  0  0
  5  7  1  0  0  0  0
  5 20  1  0  0  0  0
  5 21  1  0  0  0  0
  6  8  1  0  0  0  0
  6 22  1  0  0  0  0
  6 23  1  0  0  0  0
  7  9  1  0  0  0  0
  7 24  1  0  0  0  0
  7 25  1  0  0  0  0
  8 10  1  0  0  0  0
  8 26  1  0  0  0  0
  8 27  1  0  0  0  0
  9 12  1  0  0  0  0
  9 28  1  0  0  0  0
  9 29  1  0  0  0  0
 10 13  1  0  0  0  0
 10 30  1  0  0  0  0
 10 31  1  0  0  0  0
 11 32  1  0  0  0  0
 11 33  1  0  0  0  0
 11 34  1  0  0  0  0
 12 14  1  0  0  0  0
 12 35  1  0  0  0  0
 12 36  1  0  0  0  0
 13 14  1  0  0  0  0
 13 37  1  0  0  0  0
 13 38  1  0  0  0  0
 14 39  1  0  0  0  0
 14 40  1  0  0  0  0
 15 41  1  0  0  0  0
 15 42  1  0  0  0  0
 15 43  1  0  0  0  0
M  END
> <PUBCHEM_COMPOUND_CID>
161949

> <PUBCHEM_CONFORMER_RMSD>
0.6

> <PUBCHEM_CONFORMER_DIVERSEORDER>
4
16
3
13
21
28
27
11
17
8
15
12
25
1
18
7
23
10
9
24
19
14
22
26
2
20
5
6

> <PUBCHEM_MMFF94_PARTIAL_CHARGES>
3
1 -0.56
15 0.28
2 0.28

> <PUBCHEM_EFFECTIVE_ROTOR_COUNT>
3.4

> <PUBCHEM_PHARMACOPHORE_FEATURES>
1
1 1 acceptor

> <PUBCHEM_HEAVY_ATOM_COUNT>
15

> <PUBCHEM_ATOM_DEF_STEREO_COUNT>
0

> <PUBCHEM_ATOM_UDEF_STEREO_COUNT>
0

> <PUBCHEM_BOND_DEF_STEREO_COUNT>
0

> <PUBCHEM_BOND_UDEF_STEREO_COUNT>
0

> <PUBCHEM_ISOTOPIC_ATOM_COUNT>
0

> <PUBCHEM_COMPONENT_COUNT>
1

> <PUBCHEM_CACTVS_TAUTO_COUNT>
1

> <PUBCHEM_CONFORMER_ID>
0002789D00000004

> <PUBCHEM_MMFF94_ENERGY>
43.2817

> <PUBCHEM_FEATURE_SELFOVERLAP>
5.074

> <PUBCHEM_SHAPE_FINGERPRINT>
10967382 1 18410574006916522444
10980938 120 18409167718696670250
11132069 177 18340481188596886082
12011746 2 18410293571495938718
12382932 28 18268708484198173632
12553582 1 18338248067801751432
12592029 89 18333725853864968883
12596599 1 17846224323400379863
13618510 140 18267026244202868224
13897977 150 18410012164806122731
1420 336 16463890516659202058
14250199 8 18342740693397258102
14251711 518 18410288146989575986
14251717 144 18412819179432055365
15536298 74 18272930531359807506
15775835 57 18409738391133087174
15881359 60 18049404189773016180
16945 1 18335426772119188584
18186145 218 18343309149466883469
18219364 16 18334868220238717291
20201158 50 18408040697708255514
20606313 2 18337948991611114542
20645477 70 18408879642054733941
21249577 43 18408885148402942462
21639500 275 18411971460320010255
22721475 48 18410581647784713296
2334 1 18050010196768285484
23402539 116 18125991672886238854
23419403 2 15219432684780969467
23590187 169 18412536600585433215
2748010 2 18194129726998146318
2897 32 17905611356272820972
3286 77 17059474241570756986
57005193 9 18339631326412081336
581208 293 18341044198780180224
66348 1 18338802208776943290

> <PUBCHEM_SHAPE_MULTIPOLES>
302.82
6.01
2.74
1.02
1.23
0.15
0.16
-0.85
-0.37
-1.65
-0.15
0.63
-0.08
0.1

> <PUBCHEM_SHAPE_SELFOVERLAP>
571.186

> <PUBCHEM_SHAPE_VOLUME>
187.1

> <PUBCHEM_COORDINATE_TYPE>
2
5
10

$$$$
