161960
  -OEChem-11232109223D

 37 37  0     1  0  0  0  0  0999 V2000
    0.9634   -2.2506   -1.2341 O   0  0  0  0  0  0  0  0  0  0  0  0
    1.6795    0.7565    0.5104 O   0  0  0  0  0  0  0  0  0  0  0  0
    0.5294    2.7337    0.1869 O   0  0  0  0  0  0  0  0  0  0  0  0
   -0.0803   -0.0644   -0.8887 C   0  0  2  0  0  0  0  0  0  0  0  0
    0.4864   -0.0305    0.5424 C   0  0  1  0  0  0  0  0  0  0  0  0
    0.7939   -1.4485    1.0618 C   0  0  1  0  0  0  0  0  0  0  0  0
   -1.5297   -0.5585   -0.9056 C   0  0  0  0  0  0  0  0  0  0  0  0
    0.8026   -0.9437   -1.7846 C   0  0  0  0  0  0  0  0  0  0  0  0
    1.6220   -2.2261    0.0327 C   0  0  0  0  0  0  0  0  0  0  0  0
   -2.4257    0.3304   -0.0489 C   0  0  0  0  0  0  0  0  0  0  0  0
    1.4951   -1.4436    2.4190 C   0  0  0  0  0  0  0  0  0  0  0  0
   -3.8769   -0.1472   -0.0940 C   0  0  0  0  0  0  0  0  0  0  0  0
    1.5313    2.0415    0.0689 C   0  0  0  0  0  0  0  0  0  0  0  0
   -4.7852    0.7517    0.7297 C   0  0  0  0  0  0  0  0  0  0  0  0
    2.7942    2.4994   -0.5958 C   0  0  0  0  0  0  0  0  0  0  0  0
   -0.0901    0.9273   -1.3531 H   0  0  0  0  0  0  0  0  0  0  0  0
   -0.1732    0.4617    1.2605 H   0  0  0  0  0  0  0  0  0  0  0  0
   -0.1636   -1.9707    1.1851 H   0  0  0  0  0  0  0  0  0  0  0  0
   -1.5987   -1.5966   -0.5608 H   0  0  0  0  0  0  0  0  0  0  0  0
   -1.8996   -0.5529   -1.9390 H   0  0  0  0  0  0  0  0  0  0  0  0
    0.3505   -1.0557   -2.7760 H   0  0  0  0  0  0  0  0  0  0  0  0
    1.7913   -0.4936   -1.9338 H   0  0  0  0  0  0  0  0  0  0  0  0
    2.6265   -1.8029   -0.0887 H   0  0  0  0  0  0  0  0  0  0  0  0
    1.7435   -3.2655    0.3563 H   0  0  0  0  0  0  0  0  0  0  0  0
   -2.1243    0.3153    1.0014 H   0  0  0  0  0  0  0  0  0  0  0  0
   -2.3649    1.3686   -0.3967 H   0  0  0  0  0  0  0  0  0  0  0  0
    1.6261   -2.4657    2.7896 H   0  0  0  0  0  0  0  0  0  0  0  0
    2.4849   -0.9790    2.3608 H   0  0  0  0  0  0  0  0  0  0  0  0
    0.9036   -0.8926    3.1576 H   0  0  0  0  0  0  0  0  0  0  0  0
   -3.9445   -1.1735    0.2856 H   0  0  0  0  0  0  0  0  0  0  0  0
   -4.2328   -0.1606   -1.1308 H   0  0  0  0  0  0  0  0  0  0  0  0
   -4.7647    1.7799    0.3545 H   0  0  0  0  0  0  0  0  0  0  0  0
   -4.4787    0.7627    1.7805 H   0  0  0  0  0  0  0  0  0  0  0  0
   -5.8182    0.3931    0.6812 H   0  0  0  0  0  0  0  0  0  0  0  0
    3.0045    1.8707   -1.4645 H   0  0  0  0  0  0  0  0  0  0  0  0
    3.6222    2.4621    0.1164 H   0  0  0  0  0  0  0  0  0  0  0  0
    2.6719    3.5323   -0.9341 H   0  0  0  0  0  0  0  0  0  0  0  0
  1  8  1  0  0  0  0
  1  9  1  0  0  0  0
  2  5  1  0  0  0  0
  2 13  1  0  0  0  0
  3 13  2  0  0  0  0
  4  5  1  0  0  0  0
  4  7  1  0  0  0  0
  4  8  1  0  0  0  0
  4 16  1  0  0  0  0
  5  6  1  0  0  0  0
  5 17  1  0  0  0  0
  6  9  1  0  0  0  0
  6 11  1  0  0  0  0
  6 18  1  0  0  0  0
  7 10  1  0  0  0  0
  7 19  1  0  0  0  0
  7 20  1  0  0  0  0
  8 21  1  0  0  0  0
  8 22  1  0  0  0  0
  9 23  1  0  0  0  0
  9 24  1  0  0  0  0
 10 12  1  0  0  0  0
 10 25  1  0  0  0  0
 10 26  1  0  0  0  0
 11 27  1  0  0  0  0
 11 28  1  0  0  0  0
 11 29  1  0  0  0  0
 12 14  1  0  0  0  0
 12 30  1  0  0  0  0
 12 31  1  0  0  0  0
 13 15  1  0  0  0  0
 14 32  1  0  0  0  0
 14 33  1  0  0  0  0
 14 34  1  0  0  0  0
 15 35  1  0  0  0  0
 15 36  1  0  0  0  0
 15 37  1  0  0  0  0
M  END
> <PUBCHEM_COMPOUND_CID>
161960

> <PUBCHEM_CONFORMER_RMSD>
0.8

> <PUBCHEM_CONFORMER_DIVERSEORDER>
2
59
8
23
33
69
63
70
22
11
10
39
6
29
32
7
53
14
40
64
16
65
31
60
3
54
58
9
68
25
50
56
57
51
67
28
47
41
61
38
35
55
34
52
30
13
17
48
62
21
42
36
1
4
66
24
46
12
49
19
27
20
5
26
45
15
43
44
18
37

> <PUBCHEM_MMFF94_PARTIAL_CHARGES>
8
1 -0.56
13 0.66
15 0.06
2 -0.43
3 -0.57
5 0.28
8 0.28
9 0.28

> <PUBCHEM_EFFECTIVE_ROTOR_COUNT>
6.2

> <PUBCHEM_PHARMACOPHORE_FEATURES>
4
1 1 acceptor
1 14 hydrophobe
1 3 acceptor
6 1 4 5 6 8 9 rings

> <PUBCHEM_HEAVY_ATOM_COUNT>
15

> <PUBCHEM_ATOM_DEF_STEREO_COUNT>
0

> <PUBCHEM_ATOM_UDEF_STEREO_COUNT>
3

> <PUBCHEM_BOND_DEF_STEREO_COUNT>
0

> <PUBCHEM_BOND_UDEF_STEREO_COUNT>
0

> <PUBCHEM_ISOTOPIC_ATOM_COUNT>
0

> <PUBCHEM_COMPONENT_COUNT>
1

> <PUBCHEM_CACTVS_TAUTO_COUNT>
1

> <PUBCHEM_CONFORMER_ID>
000278A800000002

> <PUBCHEM_MMFF94_ENERGY>
29.9221

> <PUBCHEM_FEATURE_SELFOVERLAP>
20.297

> <PUBCHEM_SHAPE_FINGERPRINT>
10382601 240 18335144197794900185
10922049 32 18194411218996438284
10980938 120 18411976979643473485
12326174 3 18335135388578988455
12423570 1 11113266692241201566
12644460 14 18341063947250518249
12725867 57 18056760927411274079
12932764 1 18113621149751526519
13464514 151 18338533992053259917
14344429 50 18261112920297425835
14817 1 11845368456558564398
15906896 17 17614848847628555150
16945 1 17751332110779295106
170605 34 18339083795375486805
17357990 137 18128516340324302888
19837323 101 17551502675648576654
20539784 86 18187078455902660377
20559304 39 18131347480166724113
20645477 70 18409441480465836591
20723712 36 18200574965418120088
21524375 3 18120648295351247949
23352939 185 17415584033631665958
23419403 2 17685546169847735090
23558518 356 17543909461074042268
25 1 18337677536914645612
2748010 2 17623551069623970086
298252 57 17985834958550806356
31174 14 18260542304159567213
427121 178 17822586013393733001
430814 3 18196641024245696868
68419 9 17552598819948418934
7364860 26 18412549799273128357
81228 2 17330533364005273105
81539 233 18335139838429202301
9999458 23 17822008752625254868

> <PUBCHEM_SHAPE_MULTIPOLES>
291.09
5.23
2.78
1.6
9.63
1.12
-0.3
2.07
-1.09
-3.1
-0.11
-0.73
-1.03
-0.57

> <PUBCHEM_SHAPE_SELFOVERLAP>
566.463

> <PUBCHEM_SHAPE_VOLUME>
174.8

> <PUBCHEM_COORDINATE_TYPE>
2
5
10

$$$$
