161993
  -OEChem-11232109473D

 28 29  0     1  0  0  0  0  0999 V2000
    2.8209    1.8200    0.2116 O   0  0  0  0  0  0  0  0  0  0  0  0
   -0.3591    0.4417    0.3137 C   0  0  1  0  0  0  0  0  0  0  0  0
   -0.1611   -0.9945    0.8726 C   0  0  2  0  0  0  0  0  0  0  0  0
    1.7094   -0.6679   -0.3113 C   0  0  1  0  0  0  0  0  0  0  0  0
    0.9001    0.6224   -0.5948 C   0  0  2  0  0  0  0  0  0  0  0  0
    1.3461   -0.9708    1.1495 C   0  0  0  0  0  0  0  0  0  0  0  0
   -1.6712    0.6566   -0.4290 C   0  0  0  0  0  0  0  0  0  0  0  0
   -0.1627   -2.0002   -0.2564 C   0  0  0  0  0  0  0  0  0  0  0  0
    0.9608   -1.8075   -0.9638 C   0  0  0  0  0  0  0  0  0  0  0  0
    1.6713    1.8492   -0.2151 C   0  0  0  0  0  0  0  0  0  0  0  0
   -2.8723    0.4316    0.4857 C   0  0  0  0  0  0  0  0  0  0  0  0
   -4.1822    0.6192   -0.2627 C   0  0  0  0  0  0  0  0  0  0  0  0
   -0.3159    1.1521    1.1518 H   0  0  0  0  0  0  0  0  0  0  0  0
   -0.7663   -1.2675    1.7379 H   0  0  0  0  0  0  0  0  0  0  0  0
    2.7798   -0.6500   -0.5217 H   0  0  0  0  0  0  0  0  0  0  0  0
    0.6437    0.7143   -1.6573 H   0  0  0  0  0  0  0  0  0  0  0  0
    1.7406   -1.9309    1.5072 H   0  0  0  0  0  0  0  0  0  0  0  0
    1.6474   -0.1840    1.8498 H   0  0  0  0  0  0  0  0  0  0  0  0
   -1.7416   -0.0030   -1.3021 H   0  0  0  0  0  0  0  0  0  0  0  0
   -1.6982    1.6831   -0.8163 H   0  0  0  0  0  0  0  0  0  0  0  0
   -0.9481   -2.7042   -0.4799 H   0  0  0  0  0  0  0  0  0  0  0  0
    1.2480   -2.3259   -1.8645 H   0  0  0  0  0  0  0  0  0  0  0  0
    1.1456    2.8089   -0.3575 H   0  0  0  0  0  0  0  0  0  0  0  0
   -2.8353    1.1294    1.3302 H   0  0  0  0  0  0  0  0  0  0  0  0
   -2.8594   -0.5819    0.9003 H   0  0  0  0  0  0  0  0  0  0  0  0
   -4.2599    1.6326   -0.6695 H   0  0  0  0  0  0  0  0  0  0  0  0
   -4.2666   -0.0914   -1.0910 H   0  0  0  0  0  0  0  0  0  0  0  0
   -5.0300    0.4581    0.4106 H   0  0  0  0  0  0  0  0  0  0  0  0
  1 10  2  0  0  0  0
  2  3  1  0  0  0  0
  2  5  1  0  0  0  0
  2  7  1  0  0  0  0
  2 13  1  0  0  0  0
  3  6  1  0  0  0  0
  3  8  1  0  0  0  0
  3 14  1  0  0  0  0
  4  5  1  0  0  0  0
  4  6  1  0  0  0  0
  4  9  1  0  0  0  0
  4 15  1  0  0  0  0
  5 10  1  0  0  0  0
  5 16  1  0  0  0  0
  6 17  1  0  0  0  0
  6 18  1  0  0  0  0
  7 11  1  0  0  0  0
  7 19  1  0  0  0  0
  7 20  1  0  0  0  0
  8  9  2  0  0  0  0
  8 21  1  0  0  0  0
  9 22  1  0  0  0  0
 10 23  1  0  0  0  0
 11 12  1  0  0  0  0
 11 24  1  0  0  0  0
 11 25  1  0  0  0  0
 12 26  1  0  0  0  0
 12 27  1  0  0  0  0
 12 28  1  0  0  0  0
M  END
> <PUBCHEM_COMPOUND_CID>
161993

> <PUBCHEM_CONFORMER_RMSD>
0.6

> <PUBCHEM_CONFORMER_DIVERSEORDER>
1
26
25
28
11
14
17
12
29
22
20
32
10
24
16
2
15
31
13
7
30
21
9
8
23
27
18
19
5
3
6
4

> <PUBCHEM_MMFF94_PARTIAL_CHARGES>
10
1 -0.57
10 0.45
21 0.15
22 0.15
23 0.06
3 0.14
4 0.14
5 0.06
8 -0.29
9 -0.29

> <PUBCHEM_EFFECTIVE_ROTOR_COUNT>
3.6

> <PUBCHEM_PHARMACOPHORE_FEATURES>
3
1 1 acceptor
1 12 hydrophobe
7 2 3 4 5 6 8 9 rings

> <PUBCHEM_HEAVY_ATOM_COUNT>
12

> <PUBCHEM_ATOM_DEF_STEREO_COUNT>
0

> <PUBCHEM_ATOM_UDEF_STEREO_COUNT>
4

> <PUBCHEM_BOND_DEF_STEREO_COUNT>
0

> <PUBCHEM_BOND_UDEF_STEREO_COUNT>
0

> <PUBCHEM_ISOTOPIC_ATOM_COUNT>
0

> <PUBCHEM_COMPONENT_COUNT>
1

> <PUBCHEM_CACTVS_TAUTO_COUNT>
2

> <PUBCHEM_CONFORMER_ID>
000278C900000001

> <PUBCHEM_MMFF94_ENERGY>
38.3993

> <PUBCHEM_FEATURE_SELFOVERLAP>
15.223

> <PUBCHEM_SHAPE_FINGERPRINT>
1 1 18410857663546637628
10219947 1 18267297642927898242
12138202 97 17983872343301428244
12326174 3 18262518082982515507
12423570 1 13941140792820056446
12932764 1 17749677268955351529
13024252 1 16885804477561550564
13380535 76 18338516446953411810
13380536 305 18340494373982954623
14344429 50 18114745919359368043
15775835 57 18336545022747539605
16945 1 18339931398196412854
170605 34 18408604781649295329
17990270 104 18194683657694273895
20645477 70 18339074896714725391
20708731 107 18201162048666144095
21040471 1 18264779933241245372
21524375 3 18264767834097138184
230 275 17748836202236107381
241688 4 17476087825786945162
2748010 2 18193860316352572030
3060560 45 18341333301465562103
369184 2 16981264068632414824
68250623 7 18263357160974191882
7364860 26 18270964540034220765
81539 233 18187081779954425861

> <PUBCHEM_SHAPE_MULTIPOLES>
241.09
4.34
2.05
0.97
5.8
0.01
-0.09
1.95
0.11
-1.53
0.23
-0.18
-0.27
0.1

> <PUBCHEM_SHAPE_SELFOVERLAP>
505.671

> <PUBCHEM_SHAPE_VOLUME>
141.4

> <PUBCHEM_COORDINATE_TYPE>
2
5
10

$$$$
