162027
  -OEChem-11232108503D

 42 41  0     1  0  0  0  0  0999 V2000
    0.5666    0.7788    0.4458 O   0  0  0  0  0  0  0  0  0  0  0  0
    2.7220    0.3378   -0.4086 O   0  0  0  0  0  0  0  0  0  0  0  0
    0.3220   -0.6060    0.7484 C   0  0  2  0  0  0  0  0  0  0  0  0
   -1.2012   -0.8370    0.5995 C   0  0  0  0  0  0  0  0  0  0  0  0
   -1.7988   -0.3887   -0.7387 C   0  0  0  0  0  0  0  0  0  0  0  0
    0.7698   -0.7929    2.2033 C   0  0  0  0  0  0  0  0  0  0  0  0
    1.0953   -1.4219   -0.2669 C   0  0  0  0  0  0  0  0  0  0  0  0
    1.9553    1.0982    0.5282 C   0  0  1  0  0  0  0  0  0  0  0  0
   -3.2891   -0.5890   -0.7571 C   0  0  0  0  0  0  0  0  0  0  0  0
    2.0698    2.5787    0.1879 C   0  0  0  0  0  0  0  0  0  0  0  0
   -4.2387    0.2828   -0.3682 C   0  0  0  0  0  0  0  0  0  0  0  0
    1.6786   -2.6124   -0.0818 C   0  0  0  0  0  0  0  0  0  0  0  0
    4.1016    0.6790   -0.4035 C   0  0  0  0  0  0  0  0  0  0  0  0
   -3.8601    1.6461    0.1456 C   0  0  0  0  0  0  0  0  0  0  0  0
   -5.7179    0.0219   -0.4113 C   0  0  0  0  0  0  0  0  0  0  0  0
    4.8247   -0.1754   -1.4227 C   0  0  0  0  0  0  0  0  0  0  0  0
   -1.4319   -1.8971    0.7721 H   0  0  0  0  0  0  0  0  0  0  0  0
   -1.7074   -0.2768    1.3983 H   0  0  0  0  0  0  0  0  0  0  0  0
   -1.5396    0.6499   -0.9674 H   0  0  0  0  0  0  0  0  0  0  0  0
   -1.3759   -0.9823   -1.5580 H   0  0  0  0  0  0  0  0  0  0  0  0
    1.8554   -0.8895    2.3152 H   0  0  0  0  0  0  0  0  0  0  0  0
    0.4426    0.0412    2.8353 H   0  0  0  0  0  0  0  0  0  0  0  0
    0.3421   -1.7126    2.6205 H   0  0  0  0  0  0  0  0  0  0  0  0
    1.0523   -1.0743   -1.3005 H   0  0  0  0  0  0  0  0  0  0  0  0
    2.3422    0.9672    1.5437 H   0  0  0  0  0  0  0  0  0  0  0  0
   -3.6141   -1.5653   -1.1137 H   0  0  0  0  0  0  0  0  0  0  0  0
    1.9138    2.7484   -0.8835 H   0  0  0  0  0  0  0  0  0  0  0  0
    3.0443    2.9955    0.4586 H   0  0  0  0  0  0  0  0  0  0  0  0
    1.3088    3.1572    0.7237 H   0  0  0  0  0  0  0  0  0  0  0  0
    1.7051   -3.0917    0.8898 H   0  0  0  0  0  0  0  0  0  0  0  0
    2.1420   -3.1309   -0.9144 H   0  0  0  0  0  0  0  0  0  0  0  0
    4.5223    0.5095    0.5936 H   0  0  0  0  0  0  0  0  0  0  0  0
    4.2573    1.7224   -0.6901 H   0  0  0  0  0  0  0  0  0  0  0  0
   -4.1846    2.4152   -0.5632 H   0  0  0  0  0  0  0  0  0  0  0  0
   -2.7922    1.7860    0.3255 H   0  0  0  0  0  0  0  0  0  0  0  0
   -4.3607    1.8333    1.1023 H   0  0  0  0  0  0  0  0  0  0  0  0
   -5.9401   -0.9742   -0.8082 H   0  0  0  0  0  0  0  0  0  0  0  0
   -6.1464    0.0848    0.5940 H   0  0  0  0  0  0  0  0  0  0  0  0
   -6.2163    0.7563   -1.0520 H   0  0  0  0  0  0  0  0  0  0  0  0
    4.4050   -0.0223   -2.4224 H   0  0  0  0  0  0  0  0  0  0  0  0
    4.7061   -1.2383   -1.1876 H   0  0  0  0  0  0  0  0  0  0  0  0
    5.8919    0.0625   -1.4471 H   0  0  0  0  0  0  0  0  0  0  0  0
  1  3  1  0  0  0  0
  1  8  1  0  0  0  0
  2  8  1  0  0  0  0
  2 13  1  0  0  0  0
  3  4  1  0  0  0  0
  3  6  1  0  0  0  0
  3  7  1  0  0  0  0
  4  5  1  0  0  0  0
  4 17  1  0  0  0  0
  4 18  1  0  0  0  0
  5  9  1  0  0  0  0
  5 19  1  0  0  0  0
  5 20  1  0  0  0  0
  6 21  1  0  0  0  0
  6 22  1  0  0  0  0
  6 23  1  0  0  0  0
  7 12  2  0  0  0  0
  7 24  1  0  0  0  0
  8 10  1  0  0  0  0
  8 25  1  0  0  0  0
  9 11  2  0  0  0  0
  9 26  1  0  0  0  0
 10 27  1  0  0  0  0
 10 28  1  0  0  0  0
 10 29  1  0  0  0  0
 11 14  1  0  0  0  0
 11 15  1  0  0  0  0
 12 30  1  0  0  0  0
 12 31  1  0  0  0  0
 13 16  1  0  0  0  0
 13 32  1  0  0  0  0
 13 33  1  0  0  0  0
 14 34  1  0  0  0  0
 14 35  1  0  0  0  0
 14 36  1  0  0  0  0
 15 37  1  0  0  0  0
 15 38  1  0  0  0  0
 15 39  1  0  0  0  0
 16 40  1  0  0  0  0
 16 41  1  0  0  0  0
 16 42  1  0  0  0  0
M  END
> <PUBCHEM_COMPOUND_CID>
162027

> <PUBCHEM_CONFORMER_RMSD>
0.8

> <PUBCHEM_CONFORMER_DIVERSEORDER>
3
61
108
110
46
104
89
49
102
40
31
35
48
47
114
20
65
113
30
86
93
37
106
90
73
32
97
64
38
96
24
36
94
81
92
109
59
111
7
52
116
2
23
115
42
34
15
8
56
87
83
82
26
68
69
98
29
12
101
19
120
103
55
99
45
21
78
88
91
4
57
95
117
17
76
60
43
63
51
71
118
79
14
80
72
54
58
10
85
25
13
67
39
22
107
112
50
1
44
77
11
70
105
100
53
6
62
33
27
75
84
74
18
28
119
5
9
16
66
41

> <PUBCHEM_MMFF94_PARTIAL_CHARGES>
16
1 -0.56
11 -0.28
12 -0.3
13 0.28
14 0.14
15 0.14
2 -0.56
24 0.15
26 0.15
3 0.42
30 0.15
31 0.15
5 0.14
7 -0.29
8 0.56
9 -0.29

> <PUBCHEM_EFFECTIVE_ROTOR_COUNT>
8

> <PUBCHEM_PHARMACOPHORE_FEATURES>
4
1 1 acceptor
1 12 hydrophobe
1 2 acceptor
3 11 14 15 hydrophobe

> <PUBCHEM_HEAVY_ATOM_COUNT>
16

> <PUBCHEM_ATOM_DEF_STEREO_COUNT>
0

> <PUBCHEM_ATOM_UDEF_STEREO_COUNT>
2

> <PUBCHEM_BOND_DEF_STEREO_COUNT>
0

> <PUBCHEM_BOND_UDEF_STEREO_COUNT>
0

> <PUBCHEM_ISOTOPIC_ATOM_COUNT>
0

> <PUBCHEM_COMPONENT_COUNT>
1

> <PUBCHEM_CACTVS_TAUTO_COUNT>
1

> <PUBCHEM_CONFORMER_ID>
000278EB00000003

> <PUBCHEM_MMFF94_ENERGY>
43.204

> <PUBCHEM_FEATURE_SELFOVERLAP>
20.336

> <PUBCHEM_SHAPE_FINGERPRINT>
10366900 7 17749105608750647521
11715629 250 18340471340500730885
11806522 49 9943805599115802005
12616999 72 18412539890757631267
12730499 353 18335145314728821483
12815109 37 10375874069639469909
13464514 151 18335425629647299418
13549 16 18272656761681104484
14115302 16 16988561346321193527
14911166 2 18412832408384975238
17834072 14 9222963551511538679
17834072 33 18411974780931350671
17834072 8 18130794464309063300
18186145 218 18335972172815366845
19784866 140 17489877015975273583
200 152 16271935891523539636
20645476 183 18060131059790057287
21119208 17 17917713517218684965
21524375 3 18114737243393405480
221357 26 18343863312387228901
22289505 5 18336537210381422157
22713019 99 18272658956678418190
231179 274 17894901928113246981
23253445 4 8214145135704156238
23402655 69 18341328899451254189
23557571 272 17750248057055751235
23558518 356 17611461226691998026
23559900 14 16558746867278849874
23598291 2 17843696456084676619
25 1 18334294270953145914
2637199 183 18408887338836237419
26918003 58 8790882982745285445
3060560 45 18342172284814690982
347723 3 17988928859901848318
3545911 37 18408040724111101111
474 4 17821731667068262573
4990 188 18272936041560261983
633830 44 18188764088526555661

> <PUBCHEM_SHAPE_MULTIPOLES>
317.53
9.64
2.08
1.26
7.86
0.17
-0.48
2.52
4.23
-1.37
-0.18
-0.72
-0.3
-0.05

> <PUBCHEM_SHAPE_SELFOVERLAP>
600.195

> <PUBCHEM_SHAPE_VOLUME>
196.4

> <PUBCHEM_COORDINATE_TYPE>
2
5
10

$$$$
