162061
  -OEChem-11232108443D

 44 44  0     0  0  0  0  0  0999 V2000
    2.6206    0.6271    0.6005 O   0  0  0  0  0  0  0  0  0  0  0  0
    4.1505   -1.0637   -0.1305 O   0  0  0  0  0  0  0  0  0  0  0  0
    1.5931    0.1723   -0.2808 C   0  0  0  0  0  0  0  0  0  0  0  0
    0.7844   -0.9265    0.4322 C   0  0  0  0  0  0  0  0  0  0  0  0
    0.7835    1.3975   -0.7451 C   0  0  0  0  0  0  0  0  0  0  0  0
   -0.3896   -1.4679   -0.3870 C   0  0  0  0  0  0  0  0  0  0  0  0
    0.0573    2.1528    0.3802 C   0  0  0  0  0  0  0  0  0  0  0  0
   -1.4142   -2.1912    0.4908 C   0  0  0  0  0  0  0  0  0  0  0  0
   -1.2588    2.8108   -0.0619 C   0  0  0  0  0  0  0  0  0  0  0  0
   -2.7646   -2.4103   -0.1965 C   0  0  0  0  0  0  0  0  0  0  0  0
   -2.3884    1.8416   -0.4523 C   0  0  0  0  0  0  0  0  0  0  0  0
   -3.5028   -1.1710   -0.7329 C   0  0  0  0  0  0  0  0  0  0  0  0
   -2.8323    0.9224    0.6921 C   0  0  0  0  0  0  0  0  0  0  0  0
   -3.9020   -0.1066    0.3002 C   0  0  0  0  0  0  0  0  0  0  0  0
    3.5086   -0.4235    0.9721 C   0  0  0  0  0  0  0  0  0  0  0  0
    4.9548   -0.1637   -0.8812 C   0  0  0  0  0  0  0  0  0  0  0  0
    2.0509   -0.2567   -1.1809 H   0  0  0  0  0  0  0  0  0  0  0  0
    0.4478   -0.5616    1.4094 H   0  0  0  0  0  0  0  0  0  0  0  0
    1.4094   -1.7982    0.6518 H   0  0  0  0  0  0  0  0  0  0  0  0
    0.0942    1.1006   -1.5395 H   0  0  0  0  0  0  0  0  0  0  0  0
    1.4773    2.1078   -1.2153 H   0  0  0  0  0  0  0  0  0  0  0  0
   -0.0196   -2.1469   -1.1648 H   0  0  0  0  0  0  0  0  0  0  0  0
   -0.8814   -0.6506   -0.9079 H   0  0  0  0  0  0  0  0  0  0  0  0
    0.7275    2.9421    0.7451 H   0  0  0  0  0  0  0  0  0  0  0  0
   -0.1302    1.5150    1.2462 H   0  0  0  0  0  0  0  0  0  0  0  0
   -1.5781   -1.6534    1.4300 H   0  0  0  0  0  0  0  0  0  0  0  0
   -1.0031   -3.1671    0.7788 H   0  0  0  0  0  0  0  0  0  0  0  0
   -1.0574    3.4752   -0.9111 H   0  0  0  0  0  0  0  0  0  0  0  0
   -1.6158    3.4508    0.7547 H   0  0  0  0  0  0  0  0  0  0  0  0
   -3.4255   -2.9306    0.5083 H   0  0  0  0  0  0  0  0  0  0  0  0
   -2.6156   -3.1012   -1.0364 H   0  0  0  0  0  0  0  0  0  0  0  0
   -2.0824    1.2614   -1.3256 H   0  0  0  0  0  0  0  0  0  0  0  0
   -3.2520    2.4366   -0.7755 H   0  0  0  0  0  0  0  0  0  0  0  0
   -4.4360   -1.5447   -1.1771 H   0  0  0  0  0  0  0  0  0  0  0  0
   -2.9544   -0.7277   -1.5684 H   0  0  0  0  0  0  0  0  0  0  0  0
   -3.2451    1.5500    1.4925 H   0  0  0  0  0  0  0  0  0  0  0  0
   -1.9770    0.4112    1.1300 H   0  0  0  0  0  0  0  0  0  0  0  0
   -4.7618    0.4463   -0.1004 H   0  0  0  0  0  0  0  0  0  0  0  0
   -4.2601   -0.6072    1.2083 H   0  0  0  0  0  0  0  0  0  0  0  0
    4.2840    0.0270    1.6038 H   0  0  0  0  0  0  0  0  0  0  0  0
    3.0304   -1.1699    1.6118 H   0  0  0  0  0  0  0  0  0  0  0  0
    4.3504    0.6300   -1.3298 H   0  0  0  0  0  0  0  0  0  0  0  0
    5.4350   -0.7261   -1.6865 H   0  0  0  0  0  0  0  0  0  0  0  0
    5.7357    0.2707   -0.2495 H   0  0  0  0  0  0  0  0  0  0  0  0
  1  3  1  0  0  0  0
  1 15  1  0  0  0  0
  2 15  1  0  0  0  0
  2 16  1  0  0  0  0
  3  4  1  0  0  0  0
  3  5  1  0  0  0  0
  3 17  1  0  0  0  0
  4  6  1  0  0  0  0
  4 18  1  0  0  0  0
  4 19  1  0  0  0  0
  5  7  1  0  0  0  0
  5 20  1  0  0  0  0
  5 21  1  0  0  0  0
  6  8  1  0  0  0  0
  6 22  1  0  0  0  0
  6 23  1  0  0  0  0
  7  9  1  0  0  0  0
  7 24  1  0  0  0  0
  7 25  1  0  0  0  0
  8 10  1  0  0  0  0
  8 26  1  0  0  0  0
  8 27  1  0  0  0  0
  9 11  1  0  0  0  0
  9 28  1  0  0  0  0
  9 29  1  0  0  0  0
 10 12  1  0  0  0  0
 10 30  1  0  0  0  0
 10 31  1  0  0  0  0
 11 13  1  0  0  0  0
 11 32  1  0  0  0  0
 11 33  1  0  0  0  0
 12 14  1  0  0  0  0
 12 34  1  0  0  0  0
 12 35  1  0  0  0  0
 13 14  1  0  0  0  0
 13 36  1  0  0  0  0
 13 37  1  0  0  0  0
 14 38  1  0  0  0  0
 14 39  1  0  0  0  0
 15 40  1  0  0  0  0
 15 41  1  0  0  0  0
 16 42  1  0  0  0  0
 16 43  1  0  0  0  0
 16 44  1  0  0  0  0
M  END
> <PUBCHEM_COMPOUND_CID>
162061

> <PUBCHEM_CONFORMER_RMSD>
0.6

> <PUBCHEM_CONFORMER_DIVERSEORDER>
1
79
175
112
80
147
89
99
31
188
204
131
87
201
104
179
213
190
65
216
73
138
105
177
129
128
172
132
154
136
51
146
210
152
101
157
173
88
180
176
92
184
145
37
29
127
60
217
19
194
185
69
214
97
93
171
120
181
39
212
108
118
124
133
141
109
119
75
195
71
58
199
167
189
30
16
187
121
47
106
130
156
91
81
62
219
82
96
21
34
117
13
23
72
32
123
215
48
155
46
35
202
107
84
68
207
161
169
196
140
166
61
17
113
33
200
42
115
83
151
150
165
102
40
45
95
149
111
54
170
116
67
183
36
52
94
49
164
203
160
182
208
41
53
122
12
168
66
28
59
64
205
20
139
11
103
50
22
43
193
78
158
57
24
191
197
55
209
27
163
15
5
192
18
8
100
38
10
162
63
4
77
114
148
90
86
7
159
9
6
174
218
126
3
14
211
2
144
206
153
134
142
85
25
178
143
110
98
186
137
44
135
26
198
74
76
56
125
70

> <PUBCHEM_MMFF94_PARTIAL_CHARGES>
5
1 -0.56
15 0.56
16 0.28
2 -0.56
3 0.28

> <PUBCHEM_EFFECTIVE_ROTOR_COUNT>
5.4

> <PUBCHEM_PHARMACOPHORE_FEATURES>
2
1 1 acceptor
1 2 acceptor

> <PUBCHEM_HEAVY_ATOM_COUNT>
16

> <PUBCHEM_ATOM_DEF_STEREO_COUNT>
0

> <PUBCHEM_ATOM_UDEF_STEREO_COUNT>
0

> <PUBCHEM_BOND_DEF_STEREO_COUNT>
0

> <PUBCHEM_BOND_UDEF_STEREO_COUNT>
0

> <PUBCHEM_ISOTOPIC_ATOM_COUNT>
0

> <PUBCHEM_COMPONENT_COUNT>
1

> <PUBCHEM_CACTVS_TAUTO_COUNT>
1

> <PUBCHEM_CONFORMER_ID>
0002790D00000001

> <PUBCHEM_MMFF94_ENERGY>
33.7625

> <PUBCHEM_FEATURE_SELFOVERLAP>
10.181

> <PUBCHEM_SHAPE_FINGERPRINT>
10493431 412 18127139572079834569
10730089 88 18128837264976775398
10759866 29 17895755080517125266
108231 29 18272644632430301464
11132069 177 18342170064184580529
11458722 379 18409449167629387471
11680986 33 18123183773617985929
12011746 2 18411132511884721821
13140716 1 18339087115501141089
1420 336 18266177425726855979
14251711 518 17405147812599541727
14251745 187 18272089349130432318
14251757 5 18335150820781975422
15196674 1 18339078306523203609
15442244 35 18410291458071322298
17804303 29 18341896307042580553
17977361 122 18408315580036994755
20261772 1 18410584971957389129
20871999 31 18409457990219993086
21160774 45 18263355911085837909
21249577 28 18334857250902740513
21634736 98 18261958569293237300
232386 152 18410860992283669581
23402539 116 18272362097039552887
23557571 272 18131078116522930463
23559900 14 18342735235079588744
23590187 85 18339925909544518377
2748010 2 17977944914955156053
3286 77 16988273300397902387
8809292 202 18410293622745350057

> <PUBCHEM_SHAPE_MULTIPOLES>
317.53
7.75
2.88
0.91
6.97
0.75
0
-2.44
-0.68
-2.39
-0.06
0.25
-0.01
-0.22

> <PUBCHEM_SHAPE_SELFOVERLAP>
593.557

> <PUBCHEM_SHAPE_VOLUME>
196

> <PUBCHEM_COORDINATE_TYPE>
2
5
10

$$$$
