162002
  -OEChem-11232109033D

 44 46  0     1  0  0  0  0  0999 V2000
   -2.6455    0.3656   -0.9106 O   0  0  0  0  0  0  0  0  0  0  0  0
   -3.5994   -0.2198    1.1160 O   0  0  0  0  0  0  0  0  0  0  0  0
    1.3638    0.4899    0.1301 C   0  0  1  0  0  0  0  0  0  0  0  0
    1.1529   -0.8928   -0.5660 C   0  0  2  0  0  0  0  0  0  0  0  0
   -0.2251   -1.4298   -0.0660 C   0  0  0  0  0  0  0  0  0  0  0  0
   -0.8455   -0.1759    0.6630 C   0  0  1  0  0  0  0  0  0  0  0  0
    0.4055    0.4241    1.3264 C   0  0  0  0  0  0  0  0  0  0  0  0
    2.8536    0.5249    0.5545 C   0  0  1  0  0  0  0  0  0  0  0  0
    0.8982    1.6415   -0.7924 C   0  0  0  0  0  0  0  0  0  0  0  0
   -1.5103    0.9151   -0.2353 C   0  0  1  0  0  0  0  0  0  0  0  0
    2.4263   -1.6826   -0.2600 C   0  0  0  0  0  0  0  0  0  0  0  0
    3.4995   -0.6009   -0.2609 C   0  0  0  0  0  0  0  0  0  0  0  0
   -0.5400    1.4630   -1.3000 C   0  0  0  0  0  0  0  0  0  0  0  0
   -0.1067   -2.5948    0.9478 C   0  0  0  0  0  0  0  0  0  0  0  0
   -1.0465   -1.9907   -1.2382 C   0  0  0  0  0  0  0  0  0  0  0  0
    3.5874    1.8478    0.3884 C   0  0  0  0  0  0  0  0  0  0  0  0
   -2.0667    2.0780    0.6070 C   0  0  0  0  0  0  0  0  0  0  0  0
   -3.6015   -0.1627   -0.1037 C   0  0  0  0  0  0  0  0  0  0  0  0
    1.1284   -0.7475   -1.6549 H   0  0  0  0  0  0  0  0  0  0  0  0
   -1.4977   -0.5151    1.4687 H   0  0  0  0  0  0  0  0  0  0  0  0
    0.2392    1.4018    1.7881 H   0  0  0  0  0  0  0  0  0  0  0  0
    0.7848   -0.2281    2.1206 H   0  0  0  0  0  0  0  0  0  0  0  0
    2.9309    0.2477    1.6151 H   0  0  0  0  0  0  0  0  0  0  0  0
    1.5606    1.7275   -1.6622 H   0  0  0  0  0  0  0  0  0  0  0  0
    0.9623    2.5940   -0.2520 H   0  0  0  0  0  0  0  0  0  0  0  0
    2.6189   -2.4559   -1.0096 H   0  0  0  0  0  0  0  0  0  0  0  0
    2.4085   -2.1590    0.7244 H   0  0  0  0  0  0  0  0  0  0  0  0
    4.4330   -0.9523    0.1892 H   0  0  0  0  0  0  0  0  0  0  0  0
    3.7133   -0.2755   -1.2863 H   0  0  0  0  0  0  0  0  0  0  0  0
   -0.9088    2.4165   -1.7004 H   0  0  0  0  0  0  0  0  0  0  0  0
   -0.5285    0.7996   -2.1723 H   0  0  0  0  0  0  0  0  0  0  0  0
   -1.0999   -2.9082    1.2916 H   0  0  0  0  0  0  0  0  0  0  0  0
    0.3698   -3.4705    0.4925 H   0  0  0  0  0  0  0  0  0  0  0  0
    0.4682   -2.3315    1.8398 H   0  0  0  0  0  0  0  0  0  0  0  0
   -0.5487   -2.8702   -1.6652 H   0  0  0  0  0  0  0  0  0  0  0  0
   -2.0414   -2.3114   -0.9134 H   0  0  0  0  0  0  0  0  0  0  0  0
   -1.1633   -1.2826   -2.0610 H   0  0  0  0  0  0  0  0  0  0  0  0
    3.6393    2.1610   -0.6590 H   0  0  0  0  0  0  0  0  0  0  0  0
    3.0977    2.6394    0.9643 H   0  0  0  0  0  0  0  0  0  0  0  0
    4.6165    1.7595    0.7532 H   0  0  0  0  0  0  0  0  0  0  0  0
   -2.8469    2.6253    0.0644 H   0  0  0  0  0  0  0  0  0  0  0  0
   -2.4948    1.7613    1.5625 H   0  0  0  0  0  0  0  0  0  0  0  0
   -1.2819    2.8006    0.8570 H   0  0  0  0  0  0  0  0  0  0  0  0
   -4.4149   -0.5510   -0.7355 H   0  0  0  0  0  0  0  0  0  0  0  0
  1 10  1  0  0  0  0
  1 18  1  0  0  0  0
  2 18  2  0  0  0  0
  3  4  1  0  0  0  0
  3  7  1  0  0  0  0
  3  8  1  0  0  0  0
  3  9  1  0  0  0  0
  4  5  1  0  0  0  0
  4 11  1  0  0  0  0
  4 19  1  0  0  0  0
  5  6  1  0  0  0  0
  5 14  1  0  0  0  0
  5 15  1  0  0  0  0
  6  7  1  0  0  0  0
  6 10  1  0  0  0  0
  6 20  1  0  0  0  0
  7 21  1  0  0  0  0
  7 22  1  0  0  0  0
  8 12  1  0  0  0  0
  8 16  1  0  0  0  0
  8 23  1  0  0  0  0
  9 13  1  0  0  0  0
  9 24  1  0  0  0  0
  9 25  1  0  0  0  0
 10 13  1  0  0  0  0
 10 17  1  0  0  0  0
 11 12  1  0  0  0  0
 11 26  1  0  0  0  0
 11 27  1  0  0  0  0
 12 28  1  0  0  0  0
 12 29  1  0  0  0  0
 13 30  1  0  0  0  0
 13 31  1  0  0  0  0
 14 32  1  0  0  0  0
 14 33  1  0  0  0  0
 14 34  1  0  0  0  0
 15 35  1  0  0  0  0
 15 36  1  0  0  0  0
 15 37  1  0  0  0  0
 16 38  1  0  0  0  0
 16 39  1  0  0  0  0
 16 40  1  0  0  0  0
 17 41  1  0  0  0  0
 17 42  1  0  0  0  0
 17 43  1  0  0  0  0
 18 44  1  0  0  0  0
M  END
> <PUBCHEM_COMPOUND_CID>
162002

> <PUBCHEM_CONFORMER_RMSD>
0.6

> <PUBCHEM_CONFORMER_DIVERSEORDER>
2
1

> <PUBCHEM_MMFF94_PARTIAL_CHARGES>
5
1 -0.43
10 0.28
18 0.66
2 -0.57
44 0.06

> <PUBCHEM_EFFECTIVE_ROTOR_COUNT>
3.6

> <PUBCHEM_PHARMACOPHORE_FEATURES>
4
1 2 acceptor
3 5 14 15 hydrophobe
5 3 4 8 11 12 rings
8 3 4 5 6 7 9 10 13 rings

> <PUBCHEM_HEAVY_ATOM_COUNT>
18

> <PUBCHEM_ATOM_DEF_STEREO_COUNT>
5

> <PUBCHEM_ATOM_UDEF_STEREO_COUNT>
0

> <PUBCHEM_BOND_DEF_STEREO_COUNT>
0

> <PUBCHEM_BOND_UDEF_STEREO_COUNT>
0

> <PUBCHEM_ISOTOPIC_ATOM_COUNT>
0

> <PUBCHEM_COMPONENT_COUNT>
1

> <PUBCHEM_CACTVS_TAUTO_COUNT>
1

> <PUBCHEM_CONFORMER_ID>
000278D200000002

> <PUBCHEM_MMFF94_ENERGY>
89.547

> <PUBCHEM_FEATURE_SELFOVERLAP>
20.35

> <PUBCHEM_SHAPE_FINGERPRINT>
10863032 1 18270399369514168117
10948715 1 18342455958645760768
10967382 1 18410854399535120228
11132069 177 18339346574296306384
11680986 33 18336838592457579354
12403814 3 18261098707981585548
12423570 1 8177570439820663396
12491281 212 17775570870193601307
13140716 1 17977947113688768280
13172582 1 18333452057762288405
13380535 76 18339636845487241674
13581323 91 18410292536118669560
144361 1 18341320162960331306
14787075 74 18196929083813337241
15219456 202 18409446964342728680
15309172 13 18410013225773788681
15490181 7 18192130643023273566
15775835 57 18059858384926580689
15881359 60 18115569560942670445
16945 1 18201709665544036126
17844478 74 18334861580282502949
18175812 5 18261393299988754909
18186145 218 18130509626241142604
20510252 161 18413107260047959593
20525323 117 18193548098463939836
21501502 16 18199456826664990750
22344851 262 18264487463190474436
22344851 341 18195245507724805922
2334 1 17545601613785346636
23402539 116 18336814377273462214
23419403 2 16396268876392381084
23559900 14 17916865859159763792
2748010 2 18263638468267550708
3286 77 18340486656148009942
528886 8 18334850623747123298
5337951 7 17561077033977404104
69090 78 18272646870034019550
81228 2 18119800567643954498

> <PUBCHEM_SHAPE_MULTIPOLES>
358.69
5.14
2.39
1.17
0.09
0.57
0.02
-1.08
-0.52
0.29
0.03
-0.33
0.02
0.13

> <PUBCHEM_SHAPE_SELFOVERLAP>
764.808

> <PUBCHEM_SHAPE_VOLUME>
203

> <PUBCHEM_COORDINATE_TYPE>
2
5
10

$$$$
