16205025
  -OEChem-11232109173D

 23 24  0     0  0  0  0  0  0999 V2000
    0.9172    1.4017   -0.0001 O   0  0  0  0  0  0  0  0  0  0  0  0
    2.5581   -1.7616   -0.0012 O   0  0  0  0  0  0  0  0  0  0  0  0
   -1.1501    0.5515   -0.0001 C   0  0  0  0  0  0  0  0  0  0  0  0
   -0.2180   -0.5239    0.0008 C   0  0  0  0  0  0  0  0  0  0  0  0
   -0.4184    1.7082   -0.0002 C   0  0  0  0  0  0  0  0  0  0  0  0
    1.0309    0.0361    0.0009 C   0  0  0  0  0  0  0  0  0  0  0  0
   -2.5314    0.4268   -0.0007 C   0  0  0  0  0  0  0  0  0  0  0  0
   -0.5375   -1.8735    0.0010 C   0  0  0  0  0  0  0  0  0  0  0  0
   -0.7521    3.1398    0.0002 C   0  0  0  0  0  0  0  0  0  0  0  0
    2.3430   -0.5165   -0.0003 C   0  0  0  0  0  0  0  0  0  0  0  0
   -1.9434   -2.0333    0.0002 C   0  0  0  0  0  0  0  0  0  0  0  0
   -2.8891   -0.9422   -0.0006 C   0  0  0  0  0  0  0  0  0  0  0  0
    3.5908    0.3870    0.0001 C   0  0  0  0  0  0  0  0  0  0  0  0
    0.1472   -2.7082    0.0015 H   0  0  0  0  0  0  0  0  0  0  0  0
   -3.2511    1.2320   -0.0013 H   0  0  0  0  0  0  0  0  0  0  0  0
   -1.3354    3.3979    0.8895 H   0  0  0  0  0  0  0  0  0  0  0  0
    0.1483    3.7622   -0.0039 H   0  0  0  0  0  0  0  0  0  0  0  0
   -1.3428    3.3967   -0.8846 H   0  0  0  0  0  0  0  0  0  0  0  0
   -2.3446   -3.0471    0.0003 H   0  0  0  0  0  0  0  0  0  0  0  0
   -3.9496   -1.1953   -0.0012 H   0  0  0  0  0  0  0  0  0  0  0  0
    3.5874    1.0105    0.8979 H   0  0  0  0  0  0  0  0  0  0  0  0
    3.5866    1.0126   -0.8961 H   0  0  0  0  0  0  0  0  0  0  0  0
    4.4935   -0.2303   -0.0010 H   0  0  0  0  0  0  0  0  0  0  0  0
  1  5  1  0  0  0  0
  1  6  1  0  0  0  0
  2 10  2  0  0  0  0
  3  4  1  0  0  0  0
  3  5  2  0  0  0  0
  3  7  1  0  0  0  0
  4  6  2  0  0  0  0
  4  8  1  0  0  0  0
  5  9  1  0  0  0  0
  6 10  1  0  0  0  0
  7 12  2  0  0  0  0
  7 15  1  0  0  0  0
  8 11  2  0  0  0  0
  8 14  1  0  0  0  0
  9 16  1  0  0  0  0
  9 17  1  0  0  0  0
  9 18  1  0  0  0  0
 10 13  1  0  0  0  0
 11 12  1  0  0  0  0
 11 19  1  0  0  0  0
 12 20  1  0  0  0  0
 13 21  1  0  0  0  0
 13 22  1  0  0  0  0
 13 23  1  0  0  0  0
M  END
> <PUBCHEM_COMPOUND_CID>
16205025

> <PUBCHEM_CONFORMER_RMSD>
0.4

> <PUBCHEM_CONFORMER_DIVERSEORDER>
1
5
2
4
3

> <PUBCHEM_MMFF94_PARTIAL_CHARGES>
15
1 -0.28
10 0.59
11 -0.15
12 -0.15
13 0.06
14 0.15
15 0.15
19 0.15
2 -0.57
20 0.15
5 -0.04
6 0.05
7 -0.15
8 -0.15
9 0.18

> <PUBCHEM_EFFECTIVE_ROTOR_COUNT>
1

> <PUBCHEM_PHARMACOPHORE_FEATURES>
4
1 1 acceptor
1 2 acceptor
5 1 3 4 5 6 rings
6 3 4 7 8 11 12 rings

> <PUBCHEM_HEAVY_ATOM_COUNT>
13

> <PUBCHEM_ATOM_DEF_STEREO_COUNT>
0

> <PUBCHEM_ATOM_UDEF_STEREO_COUNT>
0

> <PUBCHEM_BOND_DEF_STEREO_COUNT>
0

> <PUBCHEM_BOND_UDEF_STEREO_COUNT>
0

> <PUBCHEM_ISOTOPIC_ATOM_COUNT>
0

> <PUBCHEM_COMPONENT_COUNT>
1

> <PUBCHEM_CACTVS_TAUTO_COUNT>
2

> <PUBCHEM_CONFORMER_ID>
00F744E100000001

> <PUBCHEM_MMFF94_ENERGY>
33.0326

> <PUBCHEM_FEATURE_SELFOVERLAP>
20.427

> <PUBCHEM_SHAPE_FINGERPRINT>
10967382 1 18410855507404483047
12382932 28 18411979199914530586
12423570 1 11732769141526643921
13380535 76 17617371784469683829
14648413 74 17903635529593244393
16945 1 18410575046050584260
193761 8 17545882625195486247
20510252 161 18271242694996158080
20645477 70 17472122351709213215
20711985 365 18265894649174620414
20871998 184 18273215287449134406
21029758 11 18341604971343236693
21501502 16 18268150860030384522
2334 1 18194401319028164579
23402539 116 18272359867887910951
23463225 33 18409450288631689014
23526114 1 17977949316985729548
23552423 10 17833551576012240847
23559900 14 18341327808940835638
241688 4 18410571807861586249
2748010 2 18339919441065236285
3071541 158 18116708706623872453
3312278 4 18335423495201670418
528886 8 18411694383463806507
7364860 26 17836366317020750609
81228 2 18336833000267793848

> <PUBCHEM_SHAPE_MULTIPOLES>
255.8
4.27
2.7
0.6
2.45
1.55
0
-1.49
0
-0.77
0
-0.03
0
0

> <PUBCHEM_SHAPE_SELFOVERLAP>
557.388

> <PUBCHEM_SHAPE_VOLUME>
142.6

> <PUBCHEM_COORDINATE_TYPE>
2
5
10

$$$$
