16213732
  -OEChem-11232109113D

 39 40  0     1  0  0  0  0  0999 V2000
    1.4836   -0.5201   -0.3833 C   0  0  1  0  0  0  0  0  0  0  0  0
    1.1124   -1.8458    0.3208 C   0  0  1  0  0  0  0  0  0  0  0  0
    0.7174    0.7127    0.0669 C   0  0  0  0  0  0  0  0  0  0  0  0
    1.6850    1.8298    0.4210 C   0  0  1  0  0  0  0  0  0  0  0  0
    2.9468   -0.1114   -0.1333 C   0  0  0  0  0  0  0  0  0  0  0  0
    2.9562    1.3965   -0.3043 C   0  0  0  0  0  0  0  0  0  0  0  0
   -0.2839   -2.3637   -0.0676 C   0  0  0  0  0  0  0  0  0  0  0  0
   -1.6233   -0.1898   -0.3406 C   0  0  2  0  0  0  0  0  0  0  0  0
   -1.4608   -1.5163    0.4142 C   0  0  0  0  0  0  0  0  0  0  0  0
   -0.6181    0.8476    0.0865 C   0  0  0  0  0  0  0  0  0  0  0  0
    2.1299   -2.9531   -0.0052 C   0  0  0  0  0  0  0  0  0  0  0  0
    1.2812    3.2464    0.0268 C   0  0  0  0  0  0  0  0  0  0  0  0
   -3.0274    0.3269   -0.1577 C   0  0  0  0  0  0  0  0  0  0  0  0
   -3.4299    0.6656    1.2471 C   0  0  0  0  0  0  0  0  0  0  0  0
   -3.8690    0.4747   -1.1915 C   0  0  0  0  0  0  0  0  0  0  0  0
    1.3450   -0.6270   -1.4685 H   0  0  0  0  0  0  0  0  0  0  0  0
    1.1321   -1.6918    1.4085 H   0  0  0  0  0  0  0  0  0  0  0  0
    3.6349   -0.5969   -0.8329 H   0  0  0  0  0  0  0  0  0  0  0  0
    3.2621   -0.3672    0.8866 H   0  0  0  0  0  0  0  0  0  0  0  0
    1.8653    1.7961    1.5038 H   0  0  0  0  0  0  0  0  0  0  0  0
    3.8534    1.8502    0.1286 H   0  0  0  0  0  0  0  0  0  0  0  0
    2.9220    1.6591   -1.3693 H   0  0  0  0  0  0  0  0  0  0  0  0
   -0.3455   -2.4986   -1.1552 H   0  0  0  0  0  0  0  0  0  0  0  0
   -0.4156   -3.3633    0.3682 H   0  0  0  0  0  0  0  0  0  0  0  0
   -1.4625   -0.3754   -1.4122 H   0  0  0  0  0  0  0  0  0  0  0  0
   -1.3632   -1.3496    1.4951 H   0  0  0  0  0  0  0  0  0  0  0  0
   -2.3666   -2.1231    0.2759 H   0  0  0  0  0  0  0  0  0  0  0  0
   -1.0098    1.8181    0.3823 H   0  0  0  0  0  0  0  0  0  0  0  0
    2.2066   -3.1130   -1.0861 H   0  0  0  0  0  0  0  0  0  0  0  0
    3.1265   -2.7120    0.3769 H   0  0  0  0  0  0  0  0  0  0  0  0
    1.8369   -3.9022    0.4571 H   0  0  0  0  0  0  0  0  0  0  0  0
    2.1088    3.9434    0.1977 H   0  0  0  0  0  0  0  0  0  0  0  0
    0.4311    3.5965    0.6214 H   0  0  0  0  0  0  0  0  0  0  0  0
    1.0030    3.3063   -1.0312 H   0  0  0  0  0  0  0  0  0  0  0  0
   -4.4574    1.0458    1.2863 H   0  0  0  0  0  0  0  0  0  0  0  0
   -2.7933    1.4392    1.6849 H   0  0  0  0  0  0  0  0  0  0  0  0
   -3.3978   -0.2182    1.8915 H   0  0  0  0  0  0  0  0  0  0  0  0
   -4.8780    0.8471   -1.0489 H   0  0  0  0  0  0  0  0  0  0  0  0
   -3.5709    0.2269   -2.2049 H   0  0  0  0  0  0  0  0  0  0  0  0
  1  2  1  0  0  0  0
  1  3  1  0  0  0  0
  1  5  1  0  0  0  0
  1 16  1  0  0  0  0
  2  7  1  0  0  0  0
  2 11  1  0  0  0  0
  2 17  1  0  0  0  0
  3  4  1  0  0  0  0
  3 10  2  0  0  0  0
  4  6  1  0  0  0  0
  4 12  1  0  0  0  0
  4 20  1  0  0  0  0
  5  6  1  0  0  0  0
  5 18  1  0  0  0  0
  5 19  1  0  0  0  0
  6 21  1  0  0  0  0
  6 22  1  0  0  0  0
  7  9  1  0  0  0  0
  7 23  1  0  0  0  0
  7 24  1  0  0  0  0
  8  9  1  0  0  0  0
  8 10  1  0  0  0  0
  8 13  1  0  0  0  0
  8 25  1  0  0  0  0
  9 26  1  0  0  0  0
  9 27  1  0  0  0  0
 10 28  1  0  0  0  0
 11 29  1  0  0  0  0
 11 30  1  0  0  0  0
 11 31  1  0  0  0  0
 12 32  1  0  0  0  0
 12 33  1  0  0  0  0
 12 34  1  0  0  0  0
 13 14  1  0  0  0  0
 13 15  2  0  0  0  0
 14 35  1  0  0  0  0
 14 36  1  0  0  0  0
 14 37  1  0  0  0  0
 15 38  1  0  0  0  0
 15 39  1  0  0  0  0
M  END
> <PUBCHEM_COMPOUND_CID>
16213732

> <PUBCHEM_CONFORMER_RMSD>
0.6

> <PUBCHEM_CONFORMER_DIVERSEORDER>
1
2
8
7
4
6
5
10
9
3

> <PUBCHEM_MMFF94_PARTIAL_CHARGES>
11
1 0.14
10 -0.29
13 -0.28
14 0.14
15 -0.3
28 0.15
3 -0.28
38 0.15
39 0.15
4 0.14
8 0.28

> <PUBCHEM_EFFECTIVE_ROTOR_COUNT>
2.4

> <PUBCHEM_PHARMACOPHORE_FEATURES>
2
5 1 3 4 5 6 rings
7 1 2 3 7 8 9 10 rings

> <PUBCHEM_HEAVY_ATOM_COUNT>
15

> <PUBCHEM_ATOM_DEF_STEREO_COUNT>
3

> <PUBCHEM_ATOM_UDEF_STEREO_COUNT>
1

> <PUBCHEM_BOND_DEF_STEREO_COUNT>
0

> <PUBCHEM_BOND_UDEF_STEREO_COUNT>
0

> <PUBCHEM_ISOTOPIC_ATOM_COUNT>
0

> <PUBCHEM_COMPONENT_COUNT>
1

> <PUBCHEM_CACTVS_TAUTO_COUNT>
1

> <PUBCHEM_CONFORMER_ID>
00F766E400000001

> <PUBCHEM_MMFF94_ENERGY>
31.0026

> <PUBCHEM_FEATURE_SELFOVERLAP>
10.172

> <PUBCHEM_SHAPE_FINGERPRINT>
1 1 18410008874882260150
104564 63 17691414005485455286
10608611 8 18192991736690034061
10967382 1 18410575071989199592
10980938 120 18410572864170274643
11471102 20 18410289194618373629
116883 192 17621030958961213877
12553582 1 17979079284084585791
12654215 9 18261947449380093980
12730499 353 18334853935957998133
13140716 1 18267024044979218032
13380535 21 18335714865672430131
13380535 76 18336820982854340882
13897977 150 18409448115578515407
14251717 144 18339070506630674087
15442244 35 18053385396781255281
15490181 7 18122062271715579594
15775835 57 18334297608010716814
16945 1 18410576179885020648
18186145 218 18342182193140803181
18219364 16 18335145336087489913
20510252 161 17621040188903766825
20588541 1 18334859407060602340
20606313 2 18337944580816871071
20645477 70 18337381635627915727
20671657 1 18413670218622541390
21029758 11 18121773933354821158
21041028 32 17978522931464155889
21501502 16 18050287265140348380
21524375 3 18263641929932186582
21639500 275 18338503188853534525
22112679 90 17769389222627675226
2334 1 17978229688050200528
23419403 2 17101951610083442814
23526114 1 18194679272263723877
23558518 356 17685489145593001544
23559900 14 18270695285347691828
23598291 2 17916303844944346831
238 59 17902751324602418045
25 1 18408608066961497772
2748010 2 18121504814924732828
3060560 45 18411409635495189348
3071541 250 18123480379706626926
350125 39 17976832200139099752
474 4 18340767143377688225
53812653 166 18411420639401724954
63268167 104 18411418367474892579
7364860 26 18412260601850579070
74978 22 18268149931858785497
77492 1 17775282716975105987
81228 2 17112967466288621066
8272917 22 18340770326232901533

> <PUBCHEM_SHAPE_MULTIPOLES>
308.69
5.38
3.16
0.87
4.05
0.29
0.02
-1.31
-0.51
-2.66
0.2
0.69
-0.11
0.01

> <PUBCHEM_SHAPE_SELFOVERLAP>
627.538

> <PUBCHEM_SHAPE_VOLUME>
176.3

> <PUBCHEM_COORDINATE_TYPE>
2
5
10

$$$$
