16213731
  -OEChem-11232109133D

 39 41  0     1  0  0  0  0  0999 V2000
   -0.8530    0.2595   -0.7461 C   0  0  2  0  0  0  0  0  0  0  0  0
   -2.1184    0.4531    0.0461 C   0  0  0  0  0  0  0  0  0  0  0  0
   -1.6755   -0.9351   -0.3311 C   0  0  2  0  0  0  0  0  0  0  0  0
    0.4386    0.5719   -0.1338 C   0  0  0  0  0  0  0  0  0  0  0  0
   -1.2455   -1.8866    0.7372 C   0  0  0  0  0  0  0  0  0  0  0  0
    1.2834   -0.4772    0.5587 C   0  0  1  0  0  0  0  0  0  0  0  0
    1.2655   -1.9082   -0.0245 C   0  0  1  0  0  0  0  0  0  0  0  0
   -2.0407    0.9206    1.4620 C   0  0  0  0  0  0  0  0  0  0  0  0
   -3.2965    1.0080   -0.6835 C   0  0  0  0  0  0  0  0  0  0  0  0
   -0.0151   -2.7043    0.3418 C   0  0  0  0  0  0  0  0  0  0  0  0
    1.0688    1.7609   -0.1179 C   0  0  0  0  0  0  0  0  0  0  0  0
    2.6752    0.1773    0.5489 C   0  0  0  0  0  0  0  0  0  0  0  0
    2.4081    1.6790    0.5467 C   0  0  0  0  0  0  0  0  0  0  0  0
    1.5162   -1.9780   -1.5394 C   0  0  0  0  0  0  0  0  0  0  0  0
    0.5889    3.0593   -0.6651 C   0  0  0  0  0  0  0  0  0  0  0  0
   -0.8853    0.4968   -1.8069 H   0  0  0  0  0  0  0  0  0  0  0  0
   -2.2031   -1.4533   -1.1256 H   0  0  0  0  0  0  0  0  0  0  0  0
   -2.0744   -2.5832    0.9180 H   0  0  0  0  0  0  0  0  0  0  0  0
   -1.0640   -1.4172    1.7066 H   0  0  0  0  0  0  0  0  0  0  0  0
    0.9721   -0.5307    1.6111 H   0  0  0  0  0  0  0  0  0  0  0  0
    2.1029   -2.4513    0.4373 H   0  0  0  0  0  0  0  0  0  0  0  0
   -2.8684    0.4985    2.0431 H   0  0  0  0  0  0  0  0  0  0  0  0
   -1.1146    0.6725    1.9859 H   0  0  0  0  0  0  0  0  0  0  0  0
   -2.1335    2.0122    1.5047 H   0  0  0  0  0  0  0  0  0  0  0  0
   -4.2281    0.7249   -0.1820 H   0  0  0  0  0  0  0  0  0  0  0  0
   -3.2476    2.1017   -0.7206 H   0  0  0  0  0  0  0  0  0  0  0  0
   -3.3565    0.6472   -1.7166 H   0  0  0  0  0  0  0  0  0  0  0  0
    0.2265   -3.3533    1.1946 H   0  0  0  0  0  0  0  0  0  0  0  0
   -0.2820   -3.3856   -0.4762 H   0  0  0  0  0  0  0  0  0  0  0  0
    3.2498   -0.0913   -0.3447 H   0  0  0  0  0  0  0  0  0  0  0  0
    3.2724   -0.1247    1.4161 H   0  0  0  0  0  0  0  0  0  0  0  0
    3.1851    2.2095   -0.0121 H   0  0  0  0  0  0  0  0  0  0  0  0
    2.3568    2.0836    1.5630 H   0  0  0  0  0  0  0  0  0  0  0  0
    0.6895   -1.5555   -2.1170 H   0  0  0  0  0  0  0  0  0  0  0  0
    2.4326   -1.4558   -1.8266 H   0  0  0  0  0  0  0  0  0  0  0  0
    1.6319   -3.0214   -1.8546 H   0  0  0  0  0  0  0  0  0  0  0  0
    0.5385    3.8091    0.1307 H   0  0  0  0  0  0  0  0  0  0  0  0
   -0.4074    2.9791   -1.1101 H   0  0  0  0  0  0  0  0  0  0  0  0
    1.2729    3.4210   -1.4392 H   0  0  0  0  0  0  0  0  0  0  0  0
  1  2  1  0  0  0  0
  1  3  1  0  0  0  0
  1  4  1  0  0  0  0
  1 16  1  0  0  0  0
  2  3  1  0  0  0  0
  2  8  1  0  0  0  0
  2  9  1  0  0  0  0
  3  5  1  0  0  0  0
  3 17  1  0  0  0  0
  4  6  1  0  0  0  0
  4 11  2  0  0  0  0
  5 10  1  0  0  0  0
  5 18  1  0  0  0  0
  5 19  1  0  0  0  0
  6  7  1  0  0  0  0
  6 12  1  0  0  0  0
  6 20  1  0  0  0  0
  7 10  1  0  0  0  0
  7 14  1  0  0  0  0
  7 21  1  0  0  0  0
  8 22  1  0  0  0  0
  8 23  1  0  0  0  0
  8 24  1  0  0  0  0
  9 25  1  0  0  0  0
  9 26  1  0  0  0  0
  9 27  1  0  0  0  0
 10 28  1  0  0  0  0
 10 29  1  0  0  0  0
 11 13  1  0  0  0  0
 11 15  1  0  0  0  0
 12 13  1  0  0  0  0
 12 30  1  0  0  0  0
 12 31  1  0  0  0  0
 13 32  1  0  0  0  0
 13 33  1  0  0  0  0
 14 34  1  0  0  0  0
 14 35  1  0  0  0  0
 14 36  1  0  0  0  0
 15 37  1  0  0  0  0
 15 38  1  0  0  0  0
 15 39  1  0  0  0  0
M  END
> <PUBCHEM_COMPOUND_CID>
16213731

> <PUBCHEM_CONFORMER_RMSD>
0.6

> <PUBCHEM_CONFORMER_DIVERSEORDER>
1
3
2

> <PUBCHEM_MMFF94_PARTIAL_CHARGES>
13
1 -0.06
11 -0.28
13 0.14
15 0.14
16 0.1
17 0.1
2 -0.19
3 -0.19
4 -0.18
5 0.09
6 0.14
8 0.09
9 0.09

> <PUBCHEM_EFFECTIVE_ROTOR_COUNT>
1.2

> <PUBCHEM_PHARMACOPHORE_FEATURES>
3
3 2 8 9 hydrophobe
5 4 6 11 12 13 rings
7 1 3 4 5 6 7 10 rings

> <PUBCHEM_HEAVY_ATOM_COUNT>
15

> <PUBCHEM_ATOM_DEF_STEREO_COUNT>
3

> <PUBCHEM_ATOM_UDEF_STEREO_COUNT>
1

> <PUBCHEM_BOND_DEF_STEREO_COUNT>
0

> <PUBCHEM_BOND_UDEF_STEREO_COUNT>
0

> <PUBCHEM_ISOTOPIC_ATOM_COUNT>
0

> <PUBCHEM_COMPONENT_COUNT>
1

> <PUBCHEM_CACTVS_TAUTO_COUNT>
1

> <PUBCHEM_CONFORMER_ID>
00F766E300000001

> <PUBCHEM_MMFF94_ENERGY>
39.7554

> <PUBCHEM_FEATURE_SELFOVERLAP>
15.248

> <PUBCHEM_SHAPE_FINGERPRINT>
10353120 184 17762640398681576183
10967382 1 18336819801748702053
12382932 28 18408878546985623704
12423570 1 11103970738224637145
12524768 44 18341333275516442159
13140716 1 18409724058663729546
13172582 1 18335408106444657784
13380535 76 18338506542954090519
14817 1 17687757442239194110
15076042 46 17834961145471004032
15490181 8 18268155429495727453
15852999 172 18268973423223500099
161256 15 18052819143955512460
16945 1 17917430886869358786
20510252 161 17837774791294502328
20511035 2 18196359540958509520
20588541 1 18410853218503373436
20871998 184 17764312034276033382
21330990 113 14536402674103623263
2334 1 18337951298166775458
23419403 2 14454836868802259747
23559900 14 18341626945176840300
241688 4 17836646322981366275
2748010 2 18410016528466820502
353137 74 17759270417349731782
528886 8 18338222826009745776
63268167 104 18269833121152360185
7364860 26 18130786720150569461

> <PUBCHEM_SHAPE_MULTIPOLES>
308.69
3.6
3.1
1.13
1.26
0.08
-0.04
-1.15
0.17
-1.01
-0.38
0.1
0.12
0.41

> <PUBCHEM_SHAPE_SELFOVERLAP>
648.76

> <PUBCHEM_SHAPE_VOLUME>
173.9

> <PUBCHEM_COORDINATE_TYPE>
2
5
10

$$$$
