16220109
  -OEChem-11232109253D

 31 30  0     0  0  0  0  0  0999 V2000
   -0.3216    0.4234    0.3906 O   0  0  0  0  0  0  0  0  0  0  0  0
   -2.3306    1.5045    0.7011 O   0  0  0  0  0  0  0  0  0  0  0  0
    1.8743    1.4129    0.4010 C   0  0  0  0  0  0  0  0  0  0  0  0
    0.3758    1.6532    0.5415 C   0  0  0  0  0  0  0  0  0  0  0  0
    2.2255    0.8714   -0.9561 C   0  0  0  0  0  0  0  0  0  0  0  0
    3.2079   -1.2495   -0.0492 C   0  0  0  0  0  0  0  0  0  0  0  0
    2.8195   -0.3146   -1.1558 C   0  0  0  0  0  0  0  0  0  0  0  0
   -2.2686   -0.8742    0.3198 C   0  0  0  0  0  0  0  0  0  0  0  0
    4.6211   -0.9724    0.4398 C   0  0  0  0  0  0  0  0  0  0  0  0
   -1.6816    0.4892    0.4935 C   0  0  0  0  0  0  0  0  0  0  0  0
   -1.8358   -1.9604    1.2595 C   0  0  0  0  0  0  0  0  0  0  0  0
   -3.1290   -1.0169   -0.7051 C   0  0  0  0  0  0  0  0  0  0  0  0
   -3.5570    0.0333   -1.6806 C   0  0  0  0  0  0  0  0  0  0  0  0
    2.3983    2.3676    0.5301 H   0  0  0  0  0  0  0  0  0  0  0  0
    2.2077    0.7702    1.2191 H   0  0  0  0  0  0  0  0  0  0  0  0
    0.0325    2.3654   -0.2192 H   0  0  0  0  0  0  0  0  0  0  0  0
    0.1679    2.0712    1.5335 H   0  0  0  0  0  0  0  0  0  0  0  0
    1.9925    1.4908   -1.8184 H   0  0  0  0  0  0  0  0  0  0  0  0
    2.4988   -1.2354    0.7842 H   0  0  0  0  0  0  0  0  0  0  0  0
    3.1635   -2.2727   -0.4431 H   0  0  0  0  0  0  0  0  0  0  0  0
    3.0548   -0.6176   -2.1725 H   0  0  0  0  0  0  0  0  0  0  0  0
    5.3465   -1.0500   -0.3774 H   0  0  0  0  0  0  0  0  0  0  0  0
    4.9024   -1.6989    1.2090 H   0  0  0  0  0  0  0  0  0  0  0  0
    4.7046    0.0285    0.8759 H   0  0  0  0  0  0  0  0  0  0  0  0
   -0.7645   -2.1584    1.1538 H   0  0  0  0  0  0  0  0  0  0  0  0
   -2.0354   -1.6666    2.2950 H   0  0  0  0  0  0  0  0  0  0  0  0
   -2.3712   -2.8957    1.0669 H   0  0  0  0  0  0  0  0  0  0  0  0
   -3.5771   -1.9967   -0.8599 H   0  0  0  0  0  0  0  0  0  0  0  0
   -4.5769    0.3589   -1.4554 H   0  0  0  0  0  0  0  0  0  0  0  0
   -3.5549   -0.3928   -2.6897 H   0  0  0  0  0  0  0  0  0  0  0  0
   -2.9050    0.9093   -1.7099 H   0  0  0  0  0  0  0  0  0  0  0  0
  1  4  1  0  0  0  0
  1 10  1  0  0  0  0
  2 10  2  0  0  0  0
  3  4  1  0  0  0  0
  3  5  1  0  0  0  0
  3 14  1  0  0  0  0
  3 15  1  0  0  0  0
  4 16  1  0  0  0  0
  4 17  1  0  0  0  0
  5  7  2  0  0  0  0
  5 18  1  0  0  0  0
  6  7  1  0  0  0  0
  6  9  1  0  0  0  0
  6 19  1  0  0  0  0
  6 20  1  0  0  0  0
  7 21  1  0  0  0  0
  8 10  1  0  0  0  0
  8 11  1  0  0  0  0
  8 12  2  0  0  0  0
  9 22  1  0  0  0  0
  9 23  1  0  0  0  0
  9 24  1  0  0  0  0
 11 25  1  0  0  0  0
 11 26  1  0  0  0  0
 11 27  1  0  0  0  0
 12 13  1  0  0  0  0
 12 28  1  0  0  0  0
 13 29  1  0  0  0  0
 13 30  1  0  0  0  0
 13 31  1  0  0  0  0
M  END
> <PUBCHEM_COMPOUND_CID>
16220109

> <PUBCHEM_CONFORMER_RMSD>
0.8

> <PUBCHEM_CONFORMER_DIVERSEORDER>
1
97
3
94
183
85
115
23
79
44
121
14
174
159
112
160
43
9
102
151
70
105
136
182
139
84
40
93
37
5
129
141
158
98
132
185
95
41
2
92
52
54
110
131
22
67
111
154
146
134
104
138
16
173
64
162
125
26
46
142
90
7
140
45
89
6
27
57
99
77
65
13
38
8
118
68
36
62
116
176
168
178
49
59
103
113
144
150
74
128
109
88
18
164
114
165
4
24
157
133
71
145
108
53
119
33
10
17
75
123
126
184
83
78
120
127
161
137
170
51
82
156
35
81
31
175
181
106
48
124
39
180
153
169
122
34
163
166
61
80
148
19
63
50
28
96
135
107
11
171
130
30
20
73
172
147
66
149
91
58
42
12
143
76
167
86
55
87
72
32
56
177
29
100
47
152
69
101
117
21
155
25
179
15
60

> <PUBCHEM_MMFF94_PARTIAL_CHARGES>
15
1 -0.43
10 0.71
11 0.14
12 -0.29
13 0.14
18 0.15
2 -0.57
21 0.15
28 0.15
3 0.14
4 0.28
5 -0.29
6 0.14
7 -0.29
8 -0.12

> <PUBCHEM_EFFECTIVE_ROTOR_COUNT>
6

> <PUBCHEM_PHARMACOPHORE_FEATURES>
4
1 11 hydrophobe
1 13 hydrophobe
1 2 acceptor
1 9 hydrophobe

> <PUBCHEM_HEAVY_ATOM_COUNT>
13

> <PUBCHEM_ATOM_DEF_STEREO_COUNT>
0

> <PUBCHEM_ATOM_UDEF_STEREO_COUNT>
0

> <PUBCHEM_BOND_DEF_STEREO_COUNT>
2

> <PUBCHEM_BOND_UDEF_STEREO_COUNT>
0

> <PUBCHEM_ISOTOPIC_ATOM_COUNT>
0

> <PUBCHEM_COMPONENT_COUNT>
1

> <PUBCHEM_CACTVS_TAUTO_COUNT>
1

> <PUBCHEM_CONFORMER_ID>
00F77FCD00000001

> <PUBCHEM_MMFF94_ENERGY>
15.0651

> <PUBCHEM_FEATURE_SELFOVERLAP>
20.297

> <PUBCHEM_SHAPE_FINGERPRINT>
10498660 4 9006773146983753666
11137873 295 18411140255468202135
12346177 29 18059293145660995813
12932764 1 17489041464247355625
13549 16 17240476975258399694
13897977 13 10735879469329971739
14123260 362 12685088176992680127
17834072 14 18340756096758277960
18186145 218 12179850519814717774
20201158 50 18410858754642780726
20645477 70 18201159961222322214
20653085 51 16805600395688762925
20671657 53 18412823607469724700
20711983 138 18337677519992843067
21501925 9 18131626794743184096
21665056 4 18113904844815152011
22169311 14 13326038563177396324
232386 152 18340781351260878524
23526113 38 18122890187154987707
23559900 14 18335134324281972936
251288 83 16916777518358065102
81228 2 17699311879365818176
9882013 296 15554439726042001574

> <PUBCHEM_SHAPE_MULTIPOLES>
255.8
7.51
1.87
1.29
3.81
0.1
0.36
2.91
1.77
0.03
-0.63
-0.71
0.05
0.07

> <PUBCHEM_SHAPE_SELFOVERLAP>
481.694

> <PUBCHEM_SHAPE_VOLUME>
159.2

> <PUBCHEM_COORDINATE_TYPE>
2
5
10

$$$$
