16224907
  -OEChem-11232109063D

 40 40  0     1  0  0  0  0  0999 V2000
   -1.7331   -0.5688    0.2039 O   0  0  0  0  0  0  0  0  0  0  0  0
   -2.1918   -2.7729    0.1368 O   0  0  0  0  0  0  0  0  0  0  0  0
   -2.2045    0.7785    0.4338 C   0  0  2  0  0  0  0  0  0  0  0  0
   -3.4343    1.1147   -0.3944 C   0  0  0  0  0  0  0  0  0  0  0  0
   -1.0533    1.7254    0.1229 C   0  0  0  0  0  0  0  0  0  0  0  0
   -4.4856    0.0547   -0.1376 C   0  0  0  0  0  0  0  0  0  0  0  0
    0.1826    1.4937    0.9985 C   0  0  0  0  0  0  0  0  0  0  0  0
   -3.9438   -1.3003   -0.5419 C   0  0  0  0  0  0  0  0  0  0  0  0
    1.3477    2.4592    0.7563 C   0  0  0  0  0  0  0  0  0  0  0  0
   -2.5718   -1.6122   -0.0012 C   0  0  0  0  0  0  0  0  0  0  0  0
    1.9087    2.3649   -0.6330 C   0  0  0  0  0  0  0  0  0  0  0  0
    3.5908    0.6080   -0.0213 C   0  0  0  0  0  0  0  0  0  0  0  0
    2.9080    1.5402   -0.9791 C   0  0  0  0  0  0  0  0  0  0  0  0
    3.4917   -0.8436   -0.4942 C   0  0  0  0  0  0  0  0  0  0  0  0
    4.1585   -1.7967    0.4980 C   0  0  0  0  0  0  0  0  0  0  0  0
    4.0302   -3.2446    0.0524 C   0  0  0  0  0  0  0  0  0  0  0  0
   -2.4470    0.8502    1.5017 H   0  0  0  0  0  0  0  0  0  0  0  0
   -3.8194    2.1055   -0.1293 H   0  0  0  0  0  0  0  0  0  0  0  0
   -3.1870    1.1285   -1.4632 H   0  0  0  0  0  0  0  0  0  0  0  0
   -1.3871    2.7630    0.2470 H   0  0  0  0  0  0  0  0  0  0  0  0
   -0.7658    1.6008   -0.9286 H   0  0  0  0  0  0  0  0  0  0  0  0
   -5.3966    0.2777   -0.7035 H   0  0  0  0  0  0  0  0  0  0  0  0
   -4.7571    0.0480    0.9252 H   0  0  0  0  0  0  0  0  0  0  0  0
   -0.1159    1.5854    2.0507 H   0  0  0  0  0  0  0  0  0  0  0  0
    0.5390    0.4641    0.8700 H   0  0  0  0  0  0  0  0  0  0  0  0
   -4.6347   -2.0762   -0.1938 H   0  0  0  0  0  0  0  0  0  0  0  0
   -3.8828   -1.3683   -1.6344 H   0  0  0  0  0  0  0  0  0  0  0  0
    0.9925    3.4878    0.9023 H   0  0  0  0  0  0  0  0  0  0  0  0
    2.1165    2.3229    1.5234 H   0  0  0  0  0  0  0  0  0  0  0  0
    1.4670    3.0006   -1.3958 H   0  0  0  0  0  0  0  0  0  0  0  0
    4.6474    0.8974    0.0371 H   0  0  0  0  0  0  0  0  0  0  0  0
    3.2004    0.6670    0.9971 H   0  0  0  0  0  0  0  0  0  0  0  0
    2.4363   -1.1214   -0.6121 H   0  0  0  0  0  0  0  0  0  0  0  0
    3.9632   -0.9494   -1.4794 H   0  0  0  0  0  0  0  0  0  0  0  0
    3.2543    1.5441   -2.0093 H   0  0  0  0  0  0  0  0  0  0  0  0
    5.2199   -1.5432    0.6015 H   0  0  0  0  0  0  0  0  0  0  0  0
    3.7002   -1.6862    1.4878 H   0  0  0  0  0  0  0  0  0  0  0  0
    4.5149   -3.9081    0.7753 H   0  0  0  0  0  0  0  0  0  0  0  0
    4.5052   -3.3986   -0.9218 H   0  0  0  0  0  0  0  0  0  0  0  0
    2.9788   -3.5390   -0.0273 H   0  0  0  0  0  0  0  0  0  0  0  0
  1  3  1  0  0  0  0
  1 10  1  0  0  0  0
  2 10  2  0  0  0  0
  3  4  1  0  0  0  0
  3  5  1  0  0  0  0
  3 17  1  0  0  0  0
  4  6  1  0  0  0  0
  4 18  1  0  0  0  0
  4 19  1  0  0  0  0
  5  7  1  0  0  0  0
  5 20  1  0  0  0  0
  5 21  1  0  0  0  0
  6  8  1  0  0  0  0
  6 22  1  0  0  0  0
  6 23  1  0  0  0  0
  7  9  1  0  0  0  0
  7 24  1  0  0  0  0
  7 25  1  0  0  0  0
  8 10  1  0  0  0  0
  8 26  1  0  0  0  0
  8 27  1  0  0  0  0
  9 11  1  0  0  0  0
  9 28  1  0  0  0  0
  9 29  1  0  0  0  0
 11 13  2  0  0  0  0
 11 30  1  0  0  0  0
 12 13  1  0  0  0  0
 12 14  1  0  0  0  0
 12 31  1  0  0  0  0
 12 32  1  0  0  0  0
 13 35  1  0  0  0  0
 14 15  1  0  0  0  0
 14 33  1  0  0  0  0
 14 34  1  0  0  0  0
 15 16  1  0  0  0  0
 15 36  1  0  0  0  0
 15 37  1  0  0  0  0
 16 38  1  0  0  0  0
 16 39  1  0  0  0  0
 16 40  1  0  0  0  0
M  END
> <PUBCHEM_COMPOUND_CID>
16224907

> <PUBCHEM_CONFORMER_RMSD>
1

> <PUBCHEM_CONFORMER_DIVERSEORDER>
1
374
489
343
157
129
491
180
646
474
531
5
490
79
423
10
96
592
617
673
289
424
361
323
389
54
687
91
619
507
2
105
726
441
27
52
470
627
572
57
209
19
223
38
184
24
148
536
111
225
86
170
384
517
21
93
55
32
595
179
574
8
3
540
709
116
154
114
115
435
626
351
252
7
418
56
668
210
226
604
359
376
467
215
117
6
146
190
396
143
76
4
34
88
11
239
624
432
130
147
266
378
166
283
135
683
671
231
127
654
229
481
312
383
337
197
665
81
714
59
122
251
101
512
379
162
550
282
14
248
647
662
95
253
452
304
71
391
314

> <PUBCHEM_MMFF94_PARTIAL_CHARGES>
11
1 -0.43
10 0.66
11 -0.29
12 0.14
13 -0.29
2 -0.57
3 0.28
30 0.15
35 0.15
8 0.06
9 0.14

> <PUBCHEM_EFFECTIVE_ROTOR_COUNT>
8

> <PUBCHEM_PHARMACOPHORE_FEATURES>
5
1 16 hydrophobe
1 2 acceptor
4 12 13 14 15 hydrophobe
4 5 7 9 11 hydrophobe
6 1 3 4 6 8 10 rings

> <PUBCHEM_HEAVY_ATOM_COUNT>
16

> <PUBCHEM_ATOM_DEF_STEREO_COUNT>
0

> <PUBCHEM_ATOM_UDEF_STEREO_COUNT>
1

> <PUBCHEM_BOND_DEF_STEREO_COUNT>
1

> <PUBCHEM_BOND_UDEF_STEREO_COUNT>
0

> <PUBCHEM_ISOTOPIC_ATOM_COUNT>
0

> <PUBCHEM_COMPONENT_COUNT>
1

> <PUBCHEM_CACTVS_TAUTO_COUNT>
1

> <PUBCHEM_CONFORMER_ID>
00F7928B00000001

> <PUBCHEM_MMFF94_ENERGY>
12.6189

> <PUBCHEM_FEATURE_SELFOVERLAP>
25.372

> <PUBCHEM_SHAPE_FINGERPRINT>
10062212 137 18202561774555737213
10616163 171 18195252336754442006
10759866 29 18264218065899255500
12555020 224 18410565159600306799
12824470 246 18201727244919538784
13533116 47 18339921623373119335
14251705 54 18411985780063104978
14866123 147 17838057000911372993
15352361 1 18339359652682842690
17834074 16 18338518659035811469
20291156 8 18338518530603394058
20645477 70 18259984911598668032
21250096 35 18343863299338419808
23559900 14 18268705193905721352
2637199 183 9295281777413776368
312425 83 17603583040873792772
4921388 177 16806171115132359155
556388 4 18268145533907362958
6433294 58 18339081621995804746
88748 71 18335990800030630818
9709674 26 18336266863379800627
9795274 37 18262238949159114082

> <PUBCHEM_SHAPE_MULTIPOLES>
317.53
9.56
3.57
0.87
0.33
1.58
0
5.95
1.11
2.91
-0.17
0.27
-0.31
-0.61

> <PUBCHEM_SHAPE_SELFOVERLAP>
609.611

> <PUBCHEM_SHAPE_VOLUME>
193.4

> <PUBCHEM_COORDINATE_TYPE>
2
5
10

$$$$
