162249
  -OEChem-11232109273D

 38 38  0     1  0  0  0  0  0999 V2000
    2.0016   -2.6194   -1.3802 O   0  0  0  0  0  0  0  0  0  0  0  0
    1.4376    2.1793   -0.4851 O   0  0  0  0  0  0  0  0  0  0  0  0
    3.4019    1.5545    0.5580 O   0  0  0  0  0  0  0  0  0  0  0  0
    0.9390   -0.6533   -0.4442 C   0  0  2  0  0  0  0  0  0  0  0  0
    1.4267    0.1870    0.7439 C   0  0  1  0  0  0  0  0  0  0  0  0
    2.2882   -0.7439    1.5930 C   0  0  0  0  0  0  0  0  0  0  0  0
   -0.4438   -1.2433   -0.2113 C   0  0  0  0  0  0  0  0  0  0  0  0
    2.9801   -1.6743    0.6062 C   0  0  0  0  0  0  0  0  0  0  0  0
    1.9721   -1.7605   -0.5069 C   0  0  0  0  0  0  0  0  0  0  0  0
   -1.5183   -0.1566   -0.1804 C   0  0  0  0  0  0  0  0  0  0  0  0
    2.2250    1.3696    0.2788 C   0  0  0  0  0  0  0  0  0  0  0  0
   -2.9117   -0.7571    0.0206 C   0  0  0  0  0  0  0  0  0  0  0  0
   -3.9893    0.3294    0.0129 C   0  0  0  0  0  0  0  0  0  0  0  0
   -5.4065   -0.2211    0.1867 C   0  0  0  0  0  0  0  0  0  0  0  0
   -6.4789    0.8570    0.2054 C   0  0  0  0  0  0  0  0  0  0  0  0
    2.0765    3.3529   -0.9972 C   0  0  0  0  0  0  0  0  0  0  0  0
    0.9733   -0.1070   -1.3932 H   0  0  0  0  0  0  0  0  0  0  0  0
    0.6269    0.5905    1.3722 H   0  0  0  0  0  0  0  0  0  0  0  0
    3.0079   -0.2323    2.2397 H   0  0  0  0  0  0  0  0  0  0  0  0
    1.6364   -1.3385    2.2465 H   0  0  0  0  0  0  0  0  0  0  0  0
   -0.4657   -1.8158    0.7249 H   0  0  0  0  0  0  0  0  0  0  0  0
   -0.6754   -1.9587   -1.0109 H   0  0  0  0  0  0  0  0  0  0  0  0
    3.9039   -1.2374    0.2170 H   0  0  0  0  0  0  0  0  0  0  0  0
    3.1726   -2.6569    1.0425 H   0  0  0  0  0  0  0  0  0  0  0  0
   -1.3330    0.5628    0.6229 H   0  0  0  0  0  0  0  0  0  0  0  0
   -1.4954    0.4035   -1.1234 H   0  0  0  0  0  0  0  0  0  0  0  0
   -3.1197   -1.4818   -0.7758 H   0  0  0  0  0  0  0  0  0  0  0  0
   -2.9460   -1.3018    0.9718 H   0  0  0  0  0  0  0  0  0  0  0  0
   -3.7832    1.0480    0.8160 H   0  0  0  0  0  0  0  0  0  0  0  0
   -3.9367    0.8864   -0.9309 H   0  0  0  0  0  0  0  0  0  0  0  0
   -5.6249   -0.9242   -0.6259 H   0  0  0  0  0  0  0  0  0  0  0  0
   -5.4622   -0.7901    1.1224 H   0  0  0  0  0  0  0  0  0  0  0  0
   -7.4687    0.4073    0.3312 H   0  0  0  0  0  0  0  0  0  0  0  0
   -6.4781    1.4240   -0.7308 H   0  0  0  0  0  0  0  0  0  0  0  0
   -6.3144    1.5566    1.0309 H   0  0  0  0  0  0  0  0  0  0  0  0
    2.9119    3.0758   -1.6473 H   0  0  0  0  0  0  0  0  0  0  0  0
    1.3429    3.9096   -1.5864 H   0  0  0  0  0  0  0  0  0  0  0  0
    2.4202    3.9867   -0.1742 H   0  0  0  0  0  0  0  0  0  0  0  0
  1  9  2  0  0  0  0
  2 11  1  0  0  0  0
  2 16  1  0  0  0  0
  3 11  2  0  0  0  0
  4  5  1  0  0  0  0
  4  7  1  0  0  0  0
  4  9  1  0  0  0  0
  4 17  1  0  0  0  0
  5  6  1  0  0  0  0
  5 11  1  0  0  0  0
  5 18  1  0  0  0  0
  6  8  1  0  0  0  0
  6 19  1  0  0  0  0
  6 20  1  0  0  0  0
  7 10  1  0  0  0  0
  7 21  1  0  0  0  0
  7 22  1  0  0  0  0
  8  9  1  0  0  0  0
  8 23  1  0  0  0  0
  8 24  1  0  0  0  0
 10 12  1  0  0  0  0
 10 25  1  0  0  0  0
 10 26  1  0  0  0  0
 12 13  1  0  0  0  0
 12 27  1  0  0  0  0
 12 28  1  0  0  0  0
 13 14  1  0  0  0  0
 13 29  1  0  0  0  0
 13 30  1  0  0  0  0
 14 15  1  0  0  0  0
 14 31  1  0  0  0  0
 14 32  1  0  0  0  0
 15 33  1  0  0  0  0
 15 34  1  0  0  0  0
 15 35  1  0  0  0  0
 16 36  1  0  0  0  0
 16 37  1  0  0  0  0
 16 38  1  0  0  0  0
M  END
> <PUBCHEM_COMPOUND_CID>
162249

> <PUBCHEM_CONFORMER_RMSD>
0.8

> <PUBCHEM_CONFORMER_DIVERSEORDER>
1
220
47
53
91
24
179
190
99
143
8
184
174
3
159
110
130
94
118
178
46
145
196
2
35
202
95
139
38
221
100
70
52
155
102
19
191
120
144
60
152
198
215
63
207
64
119
111
33
93
37
66
74
71
153
193
105
5
124
116
125
26
25
65
200
186
12
201
217
121
173
50
79
57
106
103
49
36
72
129
164
213
20
158
80
104
149
212
81
172
15
137
109
96
127
211
45
78
176
210
160
166
68
146
208
216
147
29
51
189
148
88
169
123
206
62
17
195
157
197
16
23
150
163
135
61
132
9
108
203
11
27
76
165
175
192
4
209
75
222
107
182
138
6
14
21
112
134
162
204
54
114
48
194
101
10
141
77
31
58
219
30
85
84
86
28
34
69
151
156
205
183
13
92
32
55
18
181
188
170
171
161
22
113
73
87
7
168
42
126
43
167
131
40
44
177
218
41
90
98
180
140
136
115
59
199
133
89
187
82
154
128
83
214
39
122
56
117
97
67
142
185

> <PUBCHEM_MMFF94_PARTIAL_CHARGES>
9
1 -0.57
11 0.66
16 0.28
2 -0.43
3 -0.57
4 0.06
5 0.06
8 0.06
9 0.45

> <PUBCHEM_EFFECTIVE_ROTOR_COUNT>
7.8

> <PUBCHEM_PHARMACOPHORE_FEATURES>
5
1 1 acceptor
1 15 hydrophobe
1 3 acceptor
5 4 5 6 8 9 rings
5 7 10 12 13 14 hydrophobe

> <PUBCHEM_HEAVY_ATOM_COUNT>
16

> <PUBCHEM_ATOM_DEF_STEREO_COUNT>
0

> <PUBCHEM_ATOM_UDEF_STEREO_COUNT>
2

> <PUBCHEM_BOND_DEF_STEREO_COUNT>
0

> <PUBCHEM_BOND_UDEF_STEREO_COUNT>
0

> <PUBCHEM_ISOTOPIC_ATOM_COUNT>
0

> <PUBCHEM_COMPONENT_COUNT>
1

> <PUBCHEM_CACTVS_TAUTO_COUNT>
3

> <PUBCHEM_CONFORMER_ID>
000279C900000001

> <PUBCHEM_MMFF94_ENERGY>
15.5726

> <PUBCHEM_FEATURE_SELFOVERLAP>
25.371

> <PUBCHEM_SHAPE_FINGERPRINT>
11724838 91 18339918329402111467
12346645 6 18413105086846676878
12617007 42 18271258109749750142
12633257 1 17459731799954966449
14251764 75 17976555123832399185
14344429 50 18187080633345928666
15806764 133 18189616043188589693
16945 1 17970325213596661306
17134986 127 18195254540357553612
17844677 252 18335709308928728569
18186145 218 18187641389077385883
20157964 124 18410288108877702167
20559304 39 18131632270377990025
20645477 70 18341894069955787855
21452121 99 17106764052266529068
21503847 285 18409732820628998273
21524375 3 17903350756055516860
2255824 54 18411140225192843751
23559900 14 18343587322115358175
3060560 45 18272377490165197886
31174 14 18040424495335851541
474 4 18335982064588980865
5104073 3 18335145302392228091
5283268 108 18263079933699011725
7364860 26 18343022198660078014
8272917 22 18412547617392916079
90127 26 18260276222767606281
9841814 1 18114458972493978955
9971528 1 18130505219599558591

> <PUBCHEM_SHAPE_MULTIPOLES>
311.66
9.89
2.79
1.05
24.04
2
-0.07
1.93
-1.54
-4
1.14
-0.9
-0.23
-0.17

> <PUBCHEM_SHAPE_SELFOVERLAP>
611.464

> <PUBCHEM_SHAPE_VOLUME>
188.9

> <PUBCHEM_COORDINATE_TYPE>
2
5
10

$$$$
