162275
  -OEChem-11232108503D

 31 32  0     0  0  0  0  0  0999 V2000
    2.4904   -2.3087   -0.4747 O   0  0  0  0  0  0  0  0  0  0  0  0
    0.8317   -1.8237    1.0460 O   0  0  0  0  0  0  0  0  0  0  0  0
   -0.0652    0.7417    0.5958 N   0  0  0  0  0  0  0  0  0  0  0  0
    1.2846    0.9796    0.2856 C   0  0  0  0  0  0  0  0  0  0  0  0
    2.1788   -0.0779    0.1391 C   0  0  0  0  0  0  0  0  0  0  0  0
    1.7176    2.2937    0.1258 C   0  0  0  0  0  0  0  0  0  0  0  0
   -2.3009    0.3338   -0.2464 C   0  0  0  0  0  0  0  0  0  0  0  0
    3.5144    0.1804   -0.1692 C   0  0  0  0  0  0  0  0  0  0  0  0
    3.0532    2.5518   -0.1827 C   0  0  0  0  0  0  0  0  0  0  0  0
    3.9516    1.4952   -0.3301 C   0  0  0  0  0  0  0  0  0  0  0  0
   -0.8787    0.5872   -0.4128 C   0  0  0  0  0  0  0  0  0  0  0  0
   -3.1176    0.1792   -1.3666 C   0  0  0  0  0  0  0  0  0  0  0  0
   -2.8486    0.2448    1.0335 C   0  0  0  0  0  0  0  0  0  0  0  0
    1.7501   -1.4609    0.3015 C   0  0  0  0  0  0  0  0  0  0  0  0
   -4.4817   -0.0640   -1.2071 C   0  0  0  0  0  0  0  0  0  0  0  0
   -4.2128    0.0014    1.1929 C   0  0  0  0  0  0  0  0  0  0  0  0
   -5.0293   -0.1531    0.0725 C   0  0  0  0  0  0  0  0  0  0  0  0
    2.1622   -3.7005   -0.4031 C   0  0  0  0  0  0  0  0  0  0  0  0
    1.0255    3.1240    0.2396 H   0  0  0  0  0  0  0  0  0  0  0  0
    4.2435   -0.6185   -0.2766 H   0  0  0  0  0  0  0  0  0  0  0  0
    3.3938    3.5755   -0.3070 H   0  0  0  0  0  0  0  0  0  0  0  0
    4.9922    1.6968   -0.5669 H   0  0  0  0  0  0  0  0  0  0  0  0
   -0.4999    0.6449   -1.4508 H   0  0  0  0  0  0  0  0  0  0  0  0
   -2.7056    0.2457   -2.3703 H   0  0  0  0  0  0  0  0  0  0  0  0
   -2.2368    0.3603    1.9242 H   0  0  0  0  0  0  0  0  0  0  0  0
   -5.1177   -0.1843   -2.0793 H   0  0  0  0  0  0  0  0  0  0  0  0
   -4.6396   -0.0681    2.1892 H   0  0  0  0  0  0  0  0  0  0  0  0
   -6.0915   -0.3426    0.1967 H   0  0  0  0  0  0  0  0  0  0  0  0
    1.1304   -3.8616   -0.7292 H   0  0  0  0  0  0  0  0  0  0  0  0
    2.8329   -4.2435   -1.0741 H   0  0  0  0  0  0  0  0  0  0  0  0
    2.3078   -4.0700    0.6162 H   0  0  0  0  0  0  0  0  0  0  0  0
  1 14  1  0  0  0  0
  1 18  1  0  0  0  0
  2 14  2  0  0  0  0
  3  4  1  0  0  0  0
  3 11  2  0  0  0  0
  4  5  1  0  0  0  0
  4  6  2  0  0  0  0
  5  8  2  0  0  0  0
  5 14  1  0  0  0  0
  6  9  1  0  0  0  0
  6 19  1  0  0  0  0
  7 11  1  0  0  0  0
  7 12  2  0  0  0  0
  7 13  1  0  0  0  0
  8 10  1  0  0  0  0
  8 20  1  0  0  0  0
  9 10  2  0  0  0  0
  9 21  1  0  0  0  0
 10 22  1  0  0  0  0
 11 23  1  0  0  0  0
 12 15  1  0  0  0  0
 12 24  1  0  0  0  0
 13 16  2  0  0  0  0
 13 25  1  0  0  0  0
 15 17  2  0  0  0  0
 15 26  1  0  0  0  0
 16 17  1  0  0  0  0
 16 27  1  0  0  0  0
 17 28  1  0  0  0  0
 18 29  1  0  0  0  0
 18 30  1  0  0  0  0
 18 31  1  0  0  0  0
M  END
> <PUBCHEM_COMPOUND_CID>
162275

> <PUBCHEM_CONFORMER_RMSD>
0.6

> <PUBCHEM_CONFORMER_DIVERSEORDER>
1
8
6
4
9
3
10
5
7
2

> <PUBCHEM_MMFF94_PARTIAL_CHARGES>
28
1 -0.43
10 -0.15
11 0.3
12 -0.15
13 -0.15
14 0.63
15 -0.15
16 -0.15
17 -0.15
18 0.28
19 0.15
2 -0.57
20 0.15
21 0.15
22 0.15
23 0.06
24 0.15
25 0.15
26 0.15
27 0.15
28 0.15
3 -0.63
4 0.18
5 0.09
6 -0.15
7 0.09
8 -0.15
9 -0.15

> <PUBCHEM_EFFECTIVE_ROTOR_COUNT>
4

> <PUBCHEM_PHARMACOPHORE_FEATURES>
4
1 2 acceptor
1 3 acceptor
6 4 5 6 8 9 10 rings
6 7 12 13 15 16 17 rings

> <PUBCHEM_HEAVY_ATOM_COUNT>
18

> <PUBCHEM_ATOM_DEF_STEREO_COUNT>
0

> <PUBCHEM_ATOM_UDEF_STEREO_COUNT>
0

> <PUBCHEM_BOND_DEF_STEREO_COUNT>
0

> <PUBCHEM_BOND_UDEF_STEREO_COUNT>
0

> <PUBCHEM_ISOTOPIC_ATOM_COUNT>
0

> <PUBCHEM_COMPONENT_COUNT>
1

> <PUBCHEM_CACTVS_TAUTO_COUNT>
1

> <PUBCHEM_CONFORMER_ID>
000279E300000001

> <PUBCHEM_MMFF94_ENERGY>
55.0243

> <PUBCHEM_FEATURE_SELFOVERLAP>
20.302

> <PUBCHEM_SHAPE_FINGERPRINT>
10693767 8 18131074788662359326
11471102 20 18410011061216136744
12107183 9 17767417773100314729
12236239 1 17775289382406056057
12553582 1 17979642238385780390
12730499 353 18335427906201616395
13009979 54 17487626212531003258
13533116 47 18272368660176660515
13631057 29 17840859995790905383
13836976 161 18335139838529247276
13862211 1 18338233761782711594
13911882 115 18115606970577752651
14251717 144 18410571786154575850
14386348 63 17530967990704348193
14848160 33 18263356993275353291
14866123 147 9865355422984051717
15279307 12 18130784615738186951
15375358 24 17603579755661361417
15375462 189 17988924461691722673
15502722 9 18409166593241100478
15635459 17 18259985955233360627
17138139 8 17412994915629404935
17818456 19 17271455595386646633
1813 80 17843132393882704862
18186145 218 18339645654275651460
200 152 18342735243569192529
20279233 1 17530682117549335609
204376 136 18263926720787206044
20645477 70 18336254674616146559
21054139 6 18128804429545634982
21452121 199 18047460128972696026
221490 88 18263647268692365710
2255824 54 18341330088883070348
23557571 272 16877940512585757821
23596394 208 18187077322020744919
23598291 2 17988369152342578981
25 1 18337112362394816824
2748010 2 18120388806839373352
3060560 45 18409165554297066484
33824 294 18408040732004748922
458136 41 18337684104066983340
474 4 18268710687226668280
543358 83 18267304235940178289
59682541 52 18124564589193921493
6049 1 17895195442141848789
633830 44 18129677411803202868
7364860 26 18411700963469689934
81228 2 17114082384338627760
81539 233 18260829332249293268
8272917 22 18412266112419993205
9709674 26 18334295336411055499

> <PUBCHEM_SHAPE_MULTIPOLES>
353.71
9.11
2.81
1.06
9.09
2.56
-0.03
-1.38
-0.89
-4.82
-0.26
1.12
0.06
0.03

> <PUBCHEM_SHAPE_SELFOVERLAP>
759.006

> <PUBCHEM_SHAPE_VOLUME>
195.2

> <PUBCHEM_COORDINATE_TYPE>
2
5
10

$$$$
