162213
  -OEChem-11232109203D

 40 42  0     1  0  0  0  0  0999 V2000
   -2.6807   -0.6598   -1.0221 O   0  0  0  0  0  0  0  0  0  0  0  0
   -1.4820   -0.0122   -0.5631 C   0  0  1  0  0  0  0  0  0  0  0  0
   -2.4033   -0.7529    0.3819 C   0  0  0  0  0  0  0  0  0  0  0  0
   -0.2270   -0.6811   -1.0459 C   0  0  0  0  0  0  0  0  0  0  0  0
   -1.5523    1.4834   -0.6386 C   0  0  0  0  0  0  0  0  0  0  0  0
    0.9950   -0.4552   -0.2100 C   0  0  0  0  0  0  0  0  0  0  0  0
   -0.7210    2.1460    0.4574 C   0  0  0  0  0  0  0  0  0  0  0  0
    1.4055    0.6918    0.3581 C   0  0  0  0  0  0  0  0  0  0  0  0
    0.8089    2.0723    0.2951 C   0  0  1  0  0  0  0  0  0  0  0  0
    1.9262   -1.5982    0.1193 C   0  0  2  0  0  0  0  0  0  0  0  0
   -2.0955   -2.1366    0.8268 C   0  0  0  0  0  0  0  0  0  0  0  0
   -3.3969   -0.0294    1.2170 C   0  0  0  0  0  0  0  0  0  0  0  0
    2.6568    0.4844    1.1618 C   0  0  0  0  0  0  0  0  0  0  0  0
    3.1522   -0.8766    0.6927 C   0  0  0  0  0  0  0  0  0  0  0  0
    1.2941    2.7981   -0.9637 C   0  0  0  0  0  0  0  0  0  0  0  0
    2.3201   -2.4739   -1.0666 C   0  0  0  0  0  0  0  0  0  0  0  0
   -0.0085   -0.3284   -2.0629 H   0  0  0  0  0  0  0  0  0  0  0  0
   -0.3930   -1.7560   -1.1643 H   0  0  0  0  0  0  0  0  0  0  0  0
   -2.5837    1.8435   -0.5639 H   0  0  0  0  0  0  0  0  0  0  0  0
   -1.2186    1.8142   -1.6287 H   0  0  0  0  0  0  0  0  0  0  0  0
   -1.0045    3.2062    0.4972 H   0  0  0  0  0  0  0  0  0  0  0  0
   -0.9923    1.7251    1.4338 H   0  0  0  0  0  0  0  0  0  0  0  0
    1.2098    2.6329    1.1521 H   0  0  0  0  0  0  0  0  0  0  0  0
    1.4627   -2.2223    0.8936 H   0  0  0  0  0  0  0  0  0  0  0  0
   -1.2569   -2.1301    1.5307 H   0  0  0  0  0  0  0  0  0  0  0  0
   -1.8452   -2.8082   -0.0005 H   0  0  0  0  0  0  0  0  0  0  0  0
   -2.9500   -2.5930    1.3387 H   0  0  0  0  0  0  0  0  0  0  0  0
   -2.9194    0.3648    2.1197 H   0  0  0  0  0  0  0  0  0  0  0  0
   -4.2028   -0.6997    1.5371 H   0  0  0  0  0  0  0  0  0  0  0  0
   -3.8871    0.7995    0.6990 H   0  0  0  0  0  0  0  0  0  0  0  0
    3.4082    1.2562    0.9675 H   0  0  0  0  0  0  0  0  0  0  0  0
    2.4229    0.4785    2.2318 H   0  0  0  0  0  0  0  0  0  0  0  0
    3.9242   -0.7368   -0.0759 H   0  0  0  0  0  0  0  0  0  0  0  0
    3.6134   -1.4434    1.5087 H   0  0  0  0  0  0  0  0  0  0  0  0
    0.8807    3.8112   -1.0126 H   0  0  0  0  0  0  0  0  0  0  0  0
    2.3865    2.8882   -0.9635 H   0  0  0  0  0  0  0  0  0  0  0  0
    1.0101    2.2704   -1.8801 H   0  0  0  0  0  0  0  0  0  0  0  0
    1.4680   -3.0569   -1.4303 H   0  0  0  0  0  0  0  0  0  0  0  0
    2.6972   -1.8749   -1.9030 H   0  0  0  0  0  0  0  0  0  0  0  0
    3.1031   -3.1833   -0.7773 H   0  0  0  0  0  0  0  0  0  0  0  0
  1  2  1  0  0  0  0
  1  3  1  0  0  0  0
  2  3  1  0  0  0  0
  2  4  1  0  0  0  0
  2  5  1  0  0  0  0
  3 11  1  0  0  0  0
  3 12  1  0  0  0  0
  4  6  1  0  0  0  0
  4 17  1  0  0  0  0
  4 18  1  0  0  0  0
  5  7  1  0  0  0  0
  5 19  1  0  0  0  0
  5 20  1  0  0  0  0
  6  8  2  0  0  0  0
  6 10  1  0  0  0  0
  7  9  1  0  0  0  0
  7 21  1  0  0  0  0
  7 22  1  0  0  0  0
  8  9  1  0  0  0  0
  8 13  1  0  0  0  0
  9 15  1  0  0  0  0
  9 23  1  0  0  0  0
 10 14  1  0  0  0  0
 10 16  1  0  0  0  0
 10 24  1  0  0  0  0
 11 25  1  0  0  0  0
 11 26  1  0  0  0  0
 11 27  1  0  0  0  0
 12 28  1  0  0  0  0
 12 29  1  0  0  0  0
 12 30  1  0  0  0  0
 13 14  1  0  0  0  0
 13 31  1  0  0  0  0
 13 32  1  0  0  0  0
 14 33  1  0  0  0  0
 14 34  1  0  0  0  0
 15 35  1  0  0  0  0
 15 36  1  0  0  0  0
 15 37  1  0  0  0  0
 16 38  1  0  0  0  0
 16 39  1  0  0  0  0
 16 40  1  0  0  0  0
M  END
> <PUBCHEM_COMPOUND_CID>
162213

> <PUBCHEM_CONFORMER_RMSD>
0.6

> <PUBCHEM_CONFORMER_DIVERSEORDER>
1
4
14
6
21
9
13
15
16
23
11
19
22
25
3
20
18
12
7
2
10
5
8
24
17

> <PUBCHEM_MMFF94_PARTIAL_CHARGES>
12
1 -0.3
10 0.14
11 0.09
12 0.09
13 0.14
2 -0.04
3 -0.04
4 0.23
5 0.09
6 -0.28
8 -0.28
9 0.14

> <PUBCHEM_EFFECTIVE_ROTOR_COUNT>
1.8

> <PUBCHEM_PHARMACOPHORE_FEATURES>
4
1 1 acceptor
3 3 11 12 hydrophobe
5 6 8 10 13 14 rings
7 2 4 5 6 7 8 9 rings

> <PUBCHEM_HEAVY_ATOM_COUNT>
16

> <PUBCHEM_ATOM_DEF_STEREO_COUNT>
0

> <PUBCHEM_ATOM_UDEF_STEREO_COUNT>
3

> <PUBCHEM_BOND_DEF_STEREO_COUNT>
0

> <PUBCHEM_BOND_UDEF_STEREO_COUNT>
0

> <PUBCHEM_ISOTOPIC_ATOM_COUNT>
0

> <PUBCHEM_COMPONENT_COUNT>
1

> <PUBCHEM_CACTVS_TAUTO_COUNT>
1

> <PUBCHEM_CONFORMER_ID>
000279A500000001

> <PUBCHEM_MMFF94_ENERGY>
31.499

> <PUBCHEM_FEATURE_SELFOVERLAP>
20.318

> <PUBCHEM_SHAPE_FINGERPRINT>
11086676 242 18341346512695429993
11471102 22 18343013389692963418
11578080 2 16660906855669301788
12251169 10 18341057401609654347
12382932 28 18411978095986687771
12423570 1 9778428020917214887
12524768 44 18271232816528984110
12696612 119 18411982489664215764
13140716 1 18122619719699454296
14022347 108 18045511819578508523
15490181 7 17185305989842679197
15775835 57 17274820298134930395
16945 1 18335698381476860045
17990270 104 18336823181872009891
19049666 15 18052536565067107842
19591789 44 17543638981630217164
19766037 51 18265354857421277606
20201158 50 18335971047623515067
20379382 53 18264500635828804133
20511035 2 18201154364943622157
20559304 39 18270969062719166593
20645477 70 18118674655305968495
21501502 16 18192152818234750427
21524375 3 17470169623067855004
22721475 48 18408041818494402635
22802520 49 17983578494492295470
2334 1 17690273137575173740
23388829 49 18128237055775651644
23419403 2 17115437227118993969
2748010 2 18196643012963209148
568465 68 18128808819234060378
576247 118 18054259581392218230
5902787 121 18114177574932395562
598444 67 17764035661836222535
7364860 26 18338804536422663380
81228 2 18049998896620009784
8809292 202 17979916004201721066

> <PUBCHEM_SHAPE_MULTIPOLES>
323.4
4.64
2.85
1.2
0.95
0.87
0.02
-2.05
-1.22
-0.97
0.49
0.03
-0.1
0.43

> <PUBCHEM_SHAPE_SELFOVERLAP>
675.64

> <PUBCHEM_SHAPE_VOLUME>
186.7

> <PUBCHEM_COORDINATE_TYPE>
2
5
10

$$$$
