162239
  -OEChem-11232109223D

 26 25  0     1  0  0  0  0  0999 V2000
    0.6270   -0.0914    0.4089 O   0  0  0  0  0  0  0  0  0  0  0  0
   -0.4918   -0.7649   -1.4929 O   0  0  0  0  0  0  0  0  0  0  0  0
   -1.7183   -0.2922    0.5541 C   0  0  1  0  0  0  0  0  0  0  0  0
   -2.6879    0.7582   -0.0069 C   0  0  0  0  0  0  0  0  0  0  0  0
   -2.3916   -1.6586    0.6481 C   0  0  0  0  0  0  0  0  0  0  0  0
   -0.4803   -0.4277   -0.3160 C   0  0  0  0  0  0  0  0  0  0  0  0
   -2.0628    2.1449   -0.0901 C   0  0  0  0  0  0  0  0  0  0  0  0
    1.8686   -0.1487   -0.3004 C   0  0  0  0  0  0  0  0  0  0  0  0
    2.9926    0.2518    0.6428 C   0  0  0  0  0  0  0  0  0  0  0  0
    4.3444    0.2287   -0.0476 C   0  0  0  0  0  0  0  0  0  0  0  0
   -1.4145    0.0095    1.5647 H   0  0  0  0  0  0  0  0  0  0  0  0
   -3.0266    0.4657   -1.0084 H   0  0  0  0  0  0  0  0  0  0  0  0
   -3.5787    0.8095    0.6306 H   0  0  0  0  0  0  0  0  0  0  0  0
   -1.6956   -2.4092    1.0388 H   0  0  0  0  0  0  0  0  0  0  0  0
   -3.2582   -1.6204    1.3163 H   0  0  0  0  0  0  0  0  0  0  0  0
   -2.7340   -2.0063   -0.3330 H   0  0  0  0  0  0  0  0  0  0  0  0
   -1.2258    2.1682   -0.7946 H   0  0  0  0  0  0  0  0  0  0  0  0
   -1.6991    2.4701    0.8899 H   0  0  0  0  0  0  0  0  0  0  0  0
   -2.8064    2.8714   -0.4333 H   0  0  0  0  0  0  0  0  0  0  0  0
    1.8288    0.5393   -1.1530 H   0  0  0  0  0  0  0  0  0  0  0  0
    2.0294   -1.1694   -0.6667 H   0  0  0  0  0  0  0  0  0  0  0  0
    2.7966    1.2535    1.0439 H   0  0  0  0  0  0  0  0  0  0  0  0
    3.0041   -0.4218    1.5080 H   0  0  0  0  0  0  0  0  0  0  0  0
    4.3658    0.9253   -0.8918 H   0  0  0  0  0  0  0  0  0  0  0  0
    5.1332    0.5200    0.6530 H   0  0  0  0  0  0  0  0  0  0  0  0
    4.5763   -0.7733   -0.4226 H   0  0  0  0  0  0  0  0  0  0  0  0
  1  6  1  0  0  0  0
  1  8  1  0  0  0  0
  2  6  2  0  0  0  0
  3  4  1  0  0  0  0
  3  5  1  0  0  0  0
  3  6  1  0  0  0  0
  3 11  1  0  0  0  0
  4  7  1  0  0  0  0
  4 12  1  0  0  0  0
  4 13  1  0  0  0  0
  5 14  1  0  0  0  0
  5 15  1  0  0  0  0
  5 16  1  0  0  0  0
  7 17  1  0  0  0  0
  7 18  1  0  0  0  0
  7 19  1  0  0  0  0
  8  9  1  0  0  0  0
  8 20  1  0  0  0  0
  8 21  1  0  0  0  0
  9 10  1  0  0  0  0
  9 22  1  0  0  0  0
  9 23  1  0  0  0  0
 10 24  1  0  0  0  0
 10 25  1  0  0  0  0
 10 26  1  0  0  0  0
M  END
> <PUBCHEM_COMPOUND_CID>
162239

> <PUBCHEM_CONFORMER_RMSD>
0.6

> <PUBCHEM_CONFORMER_DIVERSEORDER>
5
150
141
29
34
2
156
207
122
94
189
171
160
87
77
217
39
196
4
71
131
202
210
139
215
103
28
167
161
8
68
123
190
173
24
129
12
174
119
6
80
85
203
165
124
56
125
218
176
97
76
98
216
205
219
102
195
54
211
72
126
36
134
47
86
115
170
31
45
60
107
144
120
92
166
55
137
164
198
128
21
154
91
57
177
104
18
178
62
148
113
41
159
13
73
19
192
114
214
95
59
152
163
155
42
151
146
136
183
43
58
70
48
194
209
61
90
64
187
17
96
169
143
14
23
220
78
15
40
116
180
186
108
133
38
51
197
212
118
111
106
201
66
132
109
112
191
63
99
79
157
188
200
221
185
50
110
121
44
204
52
145
69
20
81
130
75
27
153
1
138
7
206
88
181
74
147
142
25
33
182
162
172
193
83
16
175
9
65
127
149
32
158
199
37
179
53
35
93
89
26
84
105
11
168
82
101
117
140
30
10
3
184
100
208
49
67
135
213
46
22

> <PUBCHEM_MMFF94_PARTIAL_CHARGES>
5
1 -0.43
2 -0.57
3 0.06
6 0.66
8 0.28

> <PUBCHEM_EFFECTIVE_ROTOR_COUNT>
5

> <PUBCHEM_PHARMACOPHORE_FEATURES>
4
1 10 hydrophobe
1 2 acceptor
1 5 hydrophobe
1 7 hydrophobe

> <PUBCHEM_HEAVY_ATOM_COUNT>
10

> <PUBCHEM_ATOM_DEF_STEREO_COUNT>
0

> <PUBCHEM_ATOM_UDEF_STEREO_COUNT>
1

> <PUBCHEM_BOND_DEF_STEREO_COUNT>
0

> <PUBCHEM_BOND_UDEF_STEREO_COUNT>
0

> <PUBCHEM_ISOTOPIC_ATOM_COUNT>
0

> <PUBCHEM_COMPONENT_COUNT>
1

> <PUBCHEM_CACTVS_TAUTO_COUNT>
1

> <PUBCHEM_CONFORMER_ID>
000279BF00000005

> <PUBCHEM_MMFF94_ENERGY>
4.5587

> <PUBCHEM_FEATURE_SELFOVERLAP>
20.297

> <PUBCHEM_SHAPE_FINGERPRINT>
124424 183 18202275867241342304
12932764 1 17846210094722224098
13024252 1 17967526891910786735
13839132 238 18194970630150177709
14325111 11 18408323285361213682
14390081 3 18342454794535615305
20645464 45 18341619187204957991
21293036 1 16845564314315647757
23380061 127 18261388979430912266
23402539 116 18411130347437462919
23500284 214 18271252599407104985
3248919 1 18187357736240928886

> <PUBCHEM_SHAPE_MULTIPOLES>
194.06
6.13
1.53
0.92
7.29
0.5
-0.21
0.9
0.82
-1.9
0.1
-0.05
-0.18
0.26

> <PUBCHEM_SHAPE_SELFOVERLAP>
353.865

> <PUBCHEM_SHAPE_VOLUME>
124.9

> <PUBCHEM_COORDINATE_TYPE>
2
5
10

$$$$
