162292
  -OEChem-11232109243D

 16 16  0     0  0  0  0  0  0999 V2000
   -0.4723    1.7859    0.0001 S   0  0  0  0  0  0  0  0  0  0  0  0
    2.0774   -1.1752    0.0003 O   0  0  0  0  0  0  0  0  0  0  0  0
   -2.1583   -0.1736    0.0000 N   0  0  0  0  0  0  0  0  0  0  0  0
    0.1534    0.1892    0.0000 C   0  0  0  0  0  0  0  0  0  0  0  0
   -0.8876   -0.7154    0.0000 C   0  0  0  0  0  0  0  0  0  0  0  0
    1.5627   -0.0222   -0.0001 C   0  0  0  0  0  0  0  0  0  0  0  0
   -0.7614   -2.1877   -0.0001 C   0  0  0  0  0  0  0  0  0  0  0  0
    2.5470    1.1618   -0.0001 C   0  0  0  0  0  0  0  0  0  0  0  0
   -2.0610    1.1373    0.0001 C   0  0  0  0  0  0  0  0  0  0  0  0
   -1.7460   -2.6669   -0.0002 H   0  0  0  0  0  0  0  0  0  0  0  0
   -0.2245   -2.5317   -0.8898 H   0  0  0  0  0  0  0  0  0  0  0  0
   -0.2246   -2.5319    0.8895 H   0  0  0  0  0  0  0  0  0  0  0  0
    2.4099    1.7653    0.9008 H   0  0  0  0  0  0  0  0  0  0  0  0
    2.4095    1.7655   -0.9009 H   0  0  0  0  0  0  0  0  0  0  0  0
    3.5718    0.7770   -0.0004 H   0  0  0  0  0  0  0  0  0  0  0  0
   -2.9317    1.7786    0.0001 H   0  0  0  0  0  0  0  0  0  0  0  0
  1  4  1  0  0  0  0
  1  9  1  0  0  0  0
  2  6  2  0  0  0  0
  3  5  1  0  0  0  0
  3  9  2  0  0  0  0
  4  5  2  0  0  0  0
  4  6  1  0  0  0  0
  5  7  1  0  0  0  0
  6  8  1  0  0  0  0
  7 10  1  0  0  0  0
  7 11  1  0  0  0  0
  7 12  1  0  0  0  0
  8 13  1  0  0  0  0
  8 14  1  0  0  0  0
  8 15  1  0  0  0  0
  9 16  1  0  0  0  0
M  END
> <PUBCHEM_COMPOUND_CID>
162292

> <PUBCHEM_CONFORMER_RMSD>
0.4

> <PUBCHEM_CONFORMER_DIVERSEORDER>
1
2
5
3
4

> <PUBCHEM_MMFF94_PARTIAL_CHARGES>
10
1 -0.08
16 0.15
2 -0.57
3 -0.57
4 -0.05
5 0.05
6 0.59
7 0.18
8 0.06
9 0.23

> <PUBCHEM_EFFECTIVE_ROTOR_COUNT>
1

> <PUBCHEM_PHARMACOPHORE_FEATURES>
3
1 2 acceptor
1 3 acceptor
5 1 3 4 5 9 rings

> <PUBCHEM_HEAVY_ATOM_COUNT>
9

> <PUBCHEM_ATOM_DEF_STEREO_COUNT>
0

> <PUBCHEM_ATOM_UDEF_STEREO_COUNT>
0

> <PUBCHEM_BOND_DEF_STEREO_COUNT>
0

> <PUBCHEM_BOND_UDEF_STEREO_COUNT>
0

> <PUBCHEM_ISOTOPIC_ATOM_COUNT>
0

> <PUBCHEM_COMPONENT_COUNT>
1

> <PUBCHEM_CACTVS_TAUTO_COUNT>
2

> <PUBCHEM_CONFORMER_ID>
000279F400000001

> <PUBCHEM_MMFF94_ENERGY>
12.2168

> <PUBCHEM_FEATURE_SELFOVERLAP>
15.223

> <PUBCHEM_SHAPE_FINGERPRINT>
12524768 44 18413394245472407406
12897270 3 18339645667228852380
14325111 11 18410573951097940709
16714656 1 18410294709335282525
16945 1 18266459982550119333
18185500 45 18264489674908610902
20871998 184 18128542754373452879
21040471 1 18410855451622707684
23552423 10 18333452032187734894
2748010 2 18409732824570680509
29004967 10 18261680379750100344
369184 2 18410852157303741889
5084963 1 18058443197244340944
66348 1 18265333893701444072

> <PUBCHEM_SHAPE_MULTIPOLES>
178.21
3.09
2.07
0.61
1.26
0.46
0
-0.5
0
-0.43
0
0
-0.03
0

> <PUBCHEM_SHAPE_SELFOVERLAP>
351.083

> <PUBCHEM_SHAPE_VOLUME>
109.4

> <PUBCHEM_COORDINATE_TYPE>
2
5
10

$$$$
