162248
  -OEChem-11232109103D

 40 40  0     1  0  0  0  0  0999 V2000
   -0.9480   -0.6471    0.6166 O   0  0  0  0  0  0  0  0  0  0  0  0
   -3.0536   -0.8875   -0.3031 O   0  0  0  0  0  0  0  0  0  0  0  0
    0.9306    0.5897   -0.2937 C   0  0  1  0  0  0  0  0  0  0  0  0
   -0.5396    0.1404   -0.5075 C   0  0  2  0  0  0  0  0  0  0  0  0
    1.0522    1.5454    0.9090 C   0  0  0  0  0  0  0  0  0  0  0  0
    1.8978   -0.5858   -0.0923 C   0  0  1  0  0  0  0  0  0  0  0  0
   -1.4728    1.3626   -0.6075 C   0  0  0  0  0  0  0  0  0  0  0  0
    0.1132    2.7411    0.7852 C   0  0  0  0  0  0  0  0  0  0  0  0
   -1.3323    2.3019    0.5900 C   0  0  0  0  0  0  0  0  0  0  0  0
    3.3423   -0.0637   -0.0352 C   0  0  0  0  0  0  0  0  0  0  0  0
   -0.6856   -0.7034   -1.7429 C   0  0  0  0  0  0  0  0  0  0  0  0
    1.5050   -1.3628    1.1632 C   0  0  0  0  0  0  0  0  0  0  0  0
    4.3801   -1.1688    0.1010 C   0  0  0  0  0  0  0  0  0  0  0  0
   -0.4325   -0.2670   -2.9814 C   0  0  0  0  0  0  0  0  0  0  0  0
   -2.2361   -1.0953    0.5833 C   0  0  0  0  0  0  0  0  0  0  0  0
   -2.5206   -1.8999    1.8154 C   0  0  0  0  0  0  0  0  0  0  0  0
    1.2547    1.1513   -1.1820 H   0  0  0  0  0  0  0  0  0  0  0  0
    2.0585    1.9621    0.9977 H   0  0  0  0  0  0  0  0  0  0  0  0
    0.8136    1.0709    1.8628 H   0  0  0  0  0  0  0  0  0  0  0  0
    1.8368   -1.2691   -0.9485 H   0  0  0  0  0  0  0  0  0  0  0  0
   -2.5338    1.1482   -0.7428 H   0  0  0  0  0  0  0  0  0  0  0  0
   -1.2029    1.9515   -1.4960 H   0  0  0  0  0  0  0  0  0  0  0  0
    0.4242    3.3634   -0.0632 H   0  0  0  0  0  0  0  0  0  0  0  0
    0.1894    3.3669    1.6818 H   0  0  0  0  0  0  0  0  0  0  0  0
   -1.6970    1.8085    1.4988 H   0  0  0  0  0  0  0  0  0  0  0  0
   -1.9616    3.1863    0.4367 H   0  0  0  0  0  0  0  0  0  0  0  0
    3.5068    0.6065    0.8128 H   0  0  0  0  0  0  0  0  0  0  0  0
    3.5583    0.5057   -0.9475 H   0  0  0  0  0  0  0  0  0  0  0  0
   -0.9371   -1.7567   -1.6372 H   0  0  0  0  0  0  0  0  0  0  0  0
    1.3063   -0.7803    2.0613 H   0  0  0  0  0  0  0  0  0  0  0  0
    2.3125   -2.0454    1.4494 H   0  0  0  0  0  0  0  0  0  0  0  0
    0.6803   -2.0550    0.9755 H   0  0  0  0  0  0  0  0  0  0  0  0
    5.3825   -0.7567   -0.0572 H   0  0  0  0  0  0  0  0  0  0  0  0
    4.2213   -1.9565   -0.6420 H   0  0  0  0  0  0  0  0  0  0  0  0
    4.3746   -1.6182    1.0978 H   0  0  0  0  0  0  0  0  0  0  0  0
   -0.5216   -0.9425   -3.8256 H   0  0  0  0  0  0  0  0  0  0  0  0
   -0.1299    0.7531   -3.1873 H   0  0  0  0  0  0  0  0  0  0  0  0
   -2.3660   -1.2830    2.7043 H   0  0  0  0  0  0  0  0  0  0  0  0
   -1.8738   -2.7804    1.8399 H   0  0  0  0  0  0  0  0  0  0  0  0
   -3.5628   -2.2312    1.7995 H   0  0  0  0  0  0  0  0  0  0  0  0
  1  4  1  0  0  0  0
  1 15  1  0  0  0  0
  2 15  2  0  0  0  0
  3  4  1  0  0  0  0
  3  5  1  0  0  0  0
  3  6  1  0  0  0  0
  3 17  1  0  0  0  0
  4  7  1  0  0  0  0
  4 11  1  0  0  0  0
  5  8  1  0  0  0  0
  5 18  1  0  0  0  0
  5 19  1  0  0  0  0
  6 10  1  0  0  0  0
  6 12  1  0  0  0  0
  6 20  1  0  0  0  0
  7  9  1  0  0  0  0
  7 21  1  0  0  0  0
  7 22  1  0  0  0  0
  8  9  1  0  0  0  0
  8 23  1  0  0  0  0
  8 24  1  0  0  0  0
  9 25  1  0  0  0  0
  9 26  1  0  0  0  0
 10 13  1  0  0  0  0
 10 27  1  0  0  0  0
 10 28  1  0  0  0  0
 11 14  2  0  0  0  0
 11 29  1  0  0  0  0
 12 30  1  0  0  0  0
 12 31  1  0  0  0  0
 12 32  1  0  0  0  0
 13 33  1  0  0  0  0
 13 34  1  0  0  0  0
 13 35  1  0  0  0  0
 14 36  1  0  0  0  0
 14 37  1  0  0  0  0
 15 16  1  0  0  0  0
 16 38  1  0  0  0  0
 16 39  1  0  0  0  0
 16 40  1  0  0  0  0
M  END
> <PUBCHEM_COMPOUND_CID>
162248

> <PUBCHEM_CONFORMER_RMSD>
0.8

> <PUBCHEM_CONFORMER_DIVERSEORDER>
1
17
33
32
29
16
27
30
5
31
9
4
18
22
11
15
3
26
14
25
12
24
28
7
20
13
21
23
19
2
10
6
8

> <PUBCHEM_MMFF94_PARTIAL_CHARGES>
10
1 -0.43
11 -0.29
14 -0.3
15 0.66
16 0.06
2 -0.57
29 0.15
36 0.15
37 0.15
4 0.42

> <PUBCHEM_EFFECTIVE_ROTOR_COUNT>
6.2

> <PUBCHEM_PHARMACOPHORE_FEATURES>
5
1 12 hydrophobe
1 13 hydrophobe
1 14 hydrophobe
1 2 acceptor
6 3 4 5 7 8 9 rings

> <PUBCHEM_HEAVY_ATOM_COUNT>
16

> <PUBCHEM_ATOM_DEF_STEREO_COUNT>
0

> <PUBCHEM_ATOM_UDEF_STEREO_COUNT>
3

> <PUBCHEM_BOND_DEF_STEREO_COUNT>
0

> <PUBCHEM_BOND_UDEF_STEREO_COUNT>
0

> <PUBCHEM_ISOTOPIC_ATOM_COUNT>
0

> <PUBCHEM_COMPONENT_COUNT>
1

> <PUBCHEM_CACTVS_TAUTO_COUNT>
1

> <PUBCHEM_CONFORMER_ID>
000279C800000001

> <PUBCHEM_MMFF94_ENERGY>
48.0527

> <PUBCHEM_FEATURE_SELFOVERLAP>
25.373

> <PUBCHEM_SHAPE_FINGERPRINT>
108231 29 18262808491834217018
12423570 1 11160333074243100609
12716301 132 17475565669649140249
12824470 246 17748825207151602154
13024252 1 18188204286842184484
13299463 15 17458332044570119102
13538477 17 18118681020278397456
14115302 16 18041002821140317228
14761567 1 17898539073870385786
14817 1 15438134614279437373
14863182 85 16241542443442186402
15906896 17 18054499206086056268
16945 1 17839756089989280201
18721546 61 17914592987207622764
20511035 2 18272647965493799265
20645476 183 17974285422219763292
20711985 344 16298925641957647815
20871998 184 17845931823543332948
21061003 4 18411702127184352882
21524375 3 17263833694762399952
22112679 90 17201631392626403380
22344851 262 16733562506570463845
22802520 49 17557156012546740206
2306618 200 17531517673414062814
23402539 116 18130783426759986037
23419403 2 18044077175910812636
23559900 14 18338508622504200178
2748010 2 18270945925825736776
298252 57 17198798762910690301
53812654 72 17895482427271378380
6992083 37 17203046395313683014
81228 2 18267602207569710121

> <PUBCHEM_SHAPE_MULTIPOLES>
317.53
4.6
2.37
1.89
4.56
1.48
-1.46
-2.72
1.04
-1.01
1.21
-0.92
-0.65
0.43

> <PUBCHEM_SHAPE_SELFOVERLAP>
633.147

> <PUBCHEM_SHAPE_VOLUME>
186.4

> <PUBCHEM_COORDINATE_TYPE>
2
5
10

$$$$
