1623625
  -OEChem-11232108593D

 33 33  0     0  0  0  0  0  0999 V2000
    1.8168    3.4986   -0.0033 O   0  0  0  0  0  0  0  0  0  0  0  0
    1.9298   -0.0177   -0.1906 C   0  0  0  0  0  0  0  0  0  0  0  0
    2.8292   -1.0443    0.5063 C   0  0  0  0  0  0  0  0  0  0  0  0
    1.0547    0.8274    0.7472 C   0  0  0  0  0  0  0  0  0  0  0  0
    3.6775   -1.8596   -0.4710 C   0  0  0  0  0  0  0  0  0  0  0  0
    0.1390    1.7912    0.0343 C   0  0  0  0  0  0  0  0  0  0  0  0
    4.5582   -2.8608    0.2604 C   0  0  0  0  0  0  0  0  0  0  0  0
   -1.1227    1.5760   -0.3794 C   0  0  0  0  0  0  0  0  0  0  0  0
   -1.8804    0.3323   -0.2029 C   0  0  0  0  0  0  0  0  0  0  0  0
    0.6831    3.1394   -0.2990 C   0  0  0  0  0  0  0  0  0  0  0  0
   -1.8378   -0.6430   -1.1904 C   0  0  0  0  0  0  0  0  0  0  0  0
   -2.6294    0.1461    0.9516 C   0  0  0  0  0  0  0  0  0  0  0  0
   -2.5571   -1.8258   -1.0204 C   0  0  0  0  0  0  0  0  0  0  0  0
   -3.3486   -1.0369    1.1215 C   0  0  0  0  0  0  0  0  0  0  0  0
   -3.3125   -2.0229    0.1356 C   0  0  0  0  0  0  0  0  0  0  0  0
    2.5603    0.6537   -0.7881 H   0  0  0  0  0  0  0  0  0  0  0  0
    1.2854   -0.5475   -0.9033 H   0  0  0  0  0  0  0  0  0  0  0  0
    3.4867   -0.5215    1.2116 H   0  0  0  0  0  0  0  0  0  0  0  0
    2.2033   -1.7230    1.0988 H   0  0  0  0  0  0  0  0  0  0  0  0
    0.4586    0.1514    1.3730 H   0  0  0  0  0  0  0  0  0  0  0  0
    1.6945    1.3739    1.4513 H   0  0  0  0  0  0  0  0  0  0  0  0
    3.0256   -2.3949   -1.1709 H   0  0  0  0  0  0  0  0  0  0  0  0
    4.3092   -1.1881   -1.0637 H   0  0  0  0  0  0  0  0  0  0  0  0
    3.9533   -3.5663    0.8389 H   0  0  0  0  0  0  0  0  0  0  0  0
    5.1561   -3.4332   -0.4555 H   0  0  0  0  0  0  0  0  0  0  0  0
    5.2438   -2.3527    0.9462 H   0  0  0  0  0  0  0  0  0  0  0  0
   -1.6809    2.3515   -0.9005 H   0  0  0  0  0  0  0  0  0  0  0  0
   -0.0004    3.8183   -0.8370 H   0  0  0  0  0  0  0  0  0  0  0  0
   -1.2533   -0.5022   -2.0959 H   0  0  0  0  0  0  0  0  0  0  0  0
   -2.6661    0.9060    1.7279 H   0  0  0  0  0  0  0  0  0  0  0  0
   -2.5289   -2.5937   -1.7880 H   0  0  0  0  0  0  0  0  0  0  0  0
   -3.9366   -1.1906    2.0216 H   0  0  0  0  0  0  0  0  0  0  0  0
   -3.8724   -2.9441    0.2680 H   0  0  0  0  0  0  0  0  0  0  0  0
  1 10  2  0  0  0  0
  2  3  1  0  0  0  0
  2  4  1  0  0  0  0
  2 16  1  0  0  0  0
  2 17  1  0  0  0  0
  3  5  1  0  0  0  0
  3 18  1  0  0  0  0
  3 19  1  0  0  0  0
  4  6  1  0  0  0  0
  4 20  1  0  0  0  0
  4 21  1  0  0  0  0
  5  7  1  0  0  0  0
  5 22  1  0  0  0  0
  5 23  1  0  0  0  0
  6  8  2  0  0  0  0
  6 10  1  0  0  0  0
  7 24  1  0  0  0  0
  7 25  1  0  0  0  0
  7 26  1  0  0  0  0
  8  9  1  0  0  0  0
  8 27  1  0  0  0  0
  9 11  2  0  0  0  0
  9 12  1  0  0  0  0
 10 28  1  0  0  0  0
 11 13  1  0  0  0  0
 11 29  1  0  0  0  0
 12 14  2  0  0  0  0
 12 30  1  0  0  0  0
 13 15  2  0  0  0  0
 13 31  1  0  0  0  0
 14 15  1  0  0  0  0
 14 32  1  0  0  0  0
 15 33  1  0  0  0  0
M  END
> <PUBCHEM_COMPOUND_CID>
1623625

> <PUBCHEM_CONFORMER_RMSD>
0.8

> <PUBCHEM_CONFORMER_DIVERSEORDER>
1
27
5
21
16
25
6
26
13
7
10
11
12
4
15
22
23
28
9
24
18
2
20
14
17
3
8
19

> <PUBCHEM_MMFF94_PARTIAL_CHARGES>
18
1 -0.57
10 0.5
11 -0.15
12 -0.15
13 -0.15
14 -0.15
15 -0.15
27 0.15
28 0.06
29 0.15
30 0.15
31 0.15
32 0.15
33 0.15
4 0.14
6 -0.12
8 -0.18
9 0.03

> <PUBCHEM_EFFECTIVE_ROTOR_COUNT>
6

> <PUBCHEM_PHARMACOPHORE_FEATURES>
4
1 1 acceptor
1 7 hydrophobe
5 2 3 4 5 6 hydrophobe
6 9 11 12 13 14 15 rings

> <PUBCHEM_HEAVY_ATOM_COUNT>
15

> <PUBCHEM_ATOM_DEF_STEREO_COUNT>
0

> <PUBCHEM_ATOM_UDEF_STEREO_COUNT>
0

> <PUBCHEM_BOND_DEF_STEREO_COUNT>
1

> <PUBCHEM_BOND_UDEF_STEREO_COUNT>
0

> <PUBCHEM_ISOTOPIC_ATOM_COUNT>
0

> <PUBCHEM_COMPONENT_COUNT>
1

> <PUBCHEM_CACTVS_TAUTO_COUNT>
1

> <PUBCHEM_CONFORMER_ID>
0018C64900000001

> <PUBCHEM_MMFF94_ENERGY>
24.2033

> <PUBCHEM_FEATURE_SELFOVERLAP>
20.297

> <PUBCHEM_SHAPE_FINGERPRINT>
11357001 24 18049725118372113730
12553582 1 18411703162461686918
13533116 47 18126006212031121875
15279307 12 17624139695150291263
15375462 189 18340499961851314796
20291156 8 18409451354084336718
20645477 70 18047453793816689575
20871998 22 18410009961561986896
21665056 4 17257371839187239942
22445834 79 17983584288661426209
2255824 54 18049446147256315964
23530152 11 17328021482684485396
23728640 28 17615956717125773538
27216 239 11023526030540390431
458136 41 17831312948557648016
7097593 13 18271815673882643337
7364860 26 18195529413811352328
81228 2 18051394194045211272

> <PUBCHEM_SHAPE_MULTIPOLES>
302.82
6.99
3.78
1.02
5.48
2.63
-0.01
-8.2
0.82
2.57
-0.31
-0.64
-0.28
-0.13

> <PUBCHEM_SHAPE_SELFOVERLAP>
605.201

> <PUBCHEM_SHAPE_VOLUME>
178.8

> <PUBCHEM_COORDINATE_TYPE>
2
5
10

$$$$
