162392
  -OEChem-11232109463D

 29 28  0     0  0  0  0  0  0999 V2000
    5.1337   -1.2495   -0.0795 O   0  0  0  0  0  0  0  0  0  0  0  0
    0.1051   -0.1637   -0.1198 C   0  0  0  0  0  0  0  0  0  0  0  0
   -1.1902    0.6491   -0.0603 C   0  0  0  0  0  0  0  0  0  0  0  0
    1.3333    0.7335    0.0470 C   0  0  0  0  0  0  0  0  0  0  0  0
   -2.4187   -0.2561   -0.1939 C   0  0  0  0  0  0  0  0  0  0  0  0
    2.6271   -0.0858    0.0207 C   0  0  0  0  0  0  0  0  0  0  0  0
   -3.7456    0.5099   -0.1694 C   0  0  0  0  0  0  0  0  0  0  0  0
    3.8703    0.7880    0.1548 C   0  0  0  0  0  0  0  0  0  0  0  0
   -4.9482   -0.3755   -0.3207 C   0  0  0  0  0  0  0  0  0  0  0  0
    5.1297   -0.0370    0.1083 C   0  0  0  0  0  0  0  0  0  0  0  0
   -5.8965   -0.5129    0.6128 C   0  0  0  0  0  0  0  0  0  0  0  0
    0.1637   -0.6942   -1.0780 H   0  0  0  0  0  0  0  0  0  0  0  0
    0.0971   -0.9238    0.6709 H   0  0  0  0  0  0  0  0  0  0  0  0
   -1.1946    1.3948   -0.8644 H   0  0  0  0  0  0  0  0  0  0  0  0
   -1.2421    1.1954    0.8892 H   0  0  0  0  0  0  0  0  0  0  0  0
    1.2670    1.2794    0.9958 H   0  0  0  0  0  0  0  0  0  0  0  0
    1.3546    1.4801   -0.7560 H   0  0  0  0  0  0  0  0  0  0  0  0
   -2.4128   -0.9937    0.6190 H   0  0  0  0  0  0  0  0  0  0  0  0
   -2.3472   -0.8226   -1.1315 H   0  0  0  0  0  0  0  0  0  0  0  0
    2.6070   -0.8251    0.8316 H   0  0  0  0  0  0  0  0  0  0  0  0
    2.6762   -0.6525   -0.9180 H   0  0  0  0  0  0  0  0  0  0  0  0
   -3.7564    1.2408   -0.9873 H   0  0  0  0  0  0  0  0  0  0  0  0
   -3.8095    1.0860    0.7622 H   0  0  0  0  0  0  0  0  0  0  0  0
    3.9193    1.5208   -0.6574 H   0  0  0  0  0  0  0  0  0  0  0  0
    3.8584    1.3278    1.1074 H   0  0  0  0  0  0  0  0  0  0  0  0
   -5.0468   -0.9285   -1.2511 H   0  0  0  0  0  0  0  0  0  0  0  0
    6.0710    0.5219    0.2436 H   0  0  0  0  0  0  0  0  0  0  0  0
   -6.7443   -1.1672    0.4419 H   0  0  0  0  0  0  0  0  0  0  0  0
   -5.8455    0.0187    1.5565 H   0  0  0  0  0  0  0  0  0  0  0  0
  1 10  2  0  0  0  0
  2  3  1  0  0  0  0
  2  4  1  0  0  0  0
  2 12  1  0  0  0  0
  2 13  1  0  0  0  0
  3  5  1  0  0  0  0
  3 14  1  0  0  0  0
  3 15  1  0  0  0  0
  4  6  1  0  0  0  0
  4 16  1  0  0  0  0
  4 17  1  0  0  0  0
  5  7  1  0  0  0  0
  5 18  1  0  0  0  0
  5 19  1  0  0  0  0
  6  8  1  0  0  0  0
  6 20  1  0  0  0  0
  6 21  1  0  0  0  0
  7  9  1  0  0  0  0
  7 22  1  0  0  0  0
  7 23  1  0  0  0  0
  8 10  1  0  0  0  0
  8 24  1  0  0  0  0
  8 25  1  0  0  0  0
  9 11  2  0  0  0  0
  9 26  1  0  0  0  0
 10 27  1  0  0  0  0
 11 28  1  0  0  0  0
 11 29  1  0  0  0  0
M  END
> <PUBCHEM_COMPOUND_CID>
162392

> <PUBCHEM_CONFORMER_RMSD>
0.8

> <PUBCHEM_CONFORMER_DIVERSEORDER>
1
118
61
169
47
39
89
164
133
161
48
36
79
167
21
30
157
42
10
18
56
73
67
59
3
14
28
160
99
132
20
16
95
51
85
162
13
63
55
136
152
2
72
130
141
94
35
88
31
71
49
148
146
144
82
32
143
170
5
11
98
69
140
159
34
70
7
124
22
129
155
19
107
4
126
62
26
57
38
149
121
139
24
105
74
76
166
75
119
29
165
113
27
65
147
108
145
80
120
168
142
6
111
150
52
158
17
50
106
116
101
138
58
41
125
78
43
54
163
92
153
64
109
9
151
25
100
134
8
154
135
122
90
112
87
44
123
23
128
60
96
37
15
93
137
66
115
83
114
131
156
53
86
84
40
77
91
104
103
46
97
33
102
45
81
68
12
127
110
117

> <PUBCHEM_MMFF94_PARTIAL_CHARGES>
10
1 -0.57
10 0.45
11 -0.3
26 0.15
27 0.06
28 0.15
29 0.15
7 0.14
8 0.06
9 -0.29

> <PUBCHEM_EFFECTIVE_ROTOR_COUNT>
8

> <PUBCHEM_PHARMACOPHORE_FEATURES>
2
1 1 acceptor
1 11 hydrophobe

> <PUBCHEM_HEAVY_ATOM_COUNT>
11

> <PUBCHEM_ATOM_DEF_STEREO_COUNT>
0

> <PUBCHEM_ATOM_UDEF_STEREO_COUNT>
0

> <PUBCHEM_BOND_DEF_STEREO_COUNT>
0

> <PUBCHEM_BOND_UDEF_STEREO_COUNT>
0

> <PUBCHEM_ISOTOPIC_ATOM_COUNT>
0

> <PUBCHEM_COMPONENT_COUNT>
1

> <PUBCHEM_CACTVS_TAUTO_COUNT>
2

> <PUBCHEM_CONFORMER_ID>
00027A5800000001

> <PUBCHEM_MMFF94_ENERGY>
0.6753

> <PUBCHEM_FEATURE_SELFOVERLAP>
10.148

> <PUBCHEM_SHAPE_FINGERPRINT>
11401426 45 10879992462919950417
117890 112 10592049059081704595
12714333 28 8718828682430386543
12815109 37 11095885968974790651
13533116 47 16773801355752033894
13690532 89 18411136935294893484
14123238 8 14129057015062859497
1420 363 18041001747778346811
14251718 22 11314030180017058777
14455015 7 18335143089666515835
15048467 5 9871746897045013418
15501527 16 10303818687815680375
15501527 24 12757151294500897249
17834072 33 18336265725271548012
17834076 25 18410575093253032993
187816 3 15430035457253237029
20605781 2 10087641498400708685
20621476 66 11963931665169365351
20645477 70 18410292467932410582
20719005 15 18409446990049144516
20767249 213 10015863180674899515
23402539 116 17561077012877373797
23402655 69 11169906195642400313
300161 21 11743840240144794213
42788 4 18409729569138437821
57483677 66 18335416872251492619

> <PUBCHEM_SHAPE_MULTIPOLES>
220.51
14.53
0.93
0.66
2.43
0.05
0.02
3.4
1.23
-0.54
0
0.29
0.01
0.22

> <PUBCHEM_SHAPE_SELFOVERLAP>
396.486

> <PUBCHEM_SHAPE_VOLUME>
141.2

> <PUBCHEM_COORDINATE_TYPE>
2
5
10

$$$$
