162418
  -OEChem-11232109233D

 34 33  0     1  0  0  0  0  0999 V2000
   -2.6503   -1.7698   -0.1372 O   0  0  0  0  0  0  0  0  0  0  0  0
   -0.7426    0.4927    0.0964 C   0  0  1  0  0  0  0  0  0  0  0  0
   -2.2322    0.6160   -0.3073 C   0  0  0  0  0  0  0  0  0  0  0  0
    0.0706    1.5677   -0.6634 C   0  0  0  0  0  0  0  0  0  0  0  0
   -3.1432   -0.4891    0.2442 C   0  0  1  0  0  0  0  0  0  0  0  0
    1.5826    1.5692   -0.3953 C   0  0  0  0  0  0  0  0  0  0  0  0
   -0.5610    0.6219    1.6115 C   0  0  0  0  0  0  0  0  0  0  0  0
   -4.5692   -0.3413   -0.2726 C   0  0  0  0  0  0  0  0  0  0  0  0
    2.2492    0.2929   -0.8267 C   0  0  0  0  0  0  0  0  0  0  0  0
    3.0218   -0.5352   -0.0984 C   0  0  0  0  0  0  0  0  0  0  0  0
    3.6590   -1.8008   -0.5970 C   0  0  0  0  0  0  0  0  0  0  0  0
    3.3154   -0.2244    1.3459 C   0  0  0  0  0  0  0  0  0  0  0  0
   -0.3806   -0.4963   -0.2094 H   0  0  0  0  0  0  0  0  0  0  0  0
   -2.6195    1.5946    0.0040 H   0  0  0  0  0  0  0  0  0  0  0  0
   -2.2844    0.5885   -1.4042 H   0  0  0  0  0  0  0  0  0  0  0  0
   -0.0952    1.4436   -1.7421 H   0  0  0  0  0  0  0  0  0  0  0  0
   -0.3203    2.5615   -0.4078 H   0  0  0  0  0  0  0  0  0  0  0  0
   -3.1670   -0.4569    1.3375 H   0  0  0  0  0  0  0  0  0  0  0  0
    1.7628    1.8336    0.6472 H   0  0  0  0  0  0  0  0  0  0  0  0
    2.0273    2.3824   -0.9835 H   0  0  0  0  0  0  0  0  0  0  0  0
    0.4839    0.5021    1.9070 H   0  0  0  0  0  0  0  0  0  0  0  0
   -0.9048    1.5987    1.9679 H   0  0  0  0  0  0  0  0  0  0  0  0
   -1.1205   -0.1503    2.1474 H   0  0  0  0  0  0  0  0  0  0  0  0
   -5.0020    0.6187    0.0249 H   0  0  0  0  0  0  0  0  0  0  0  0
   -4.6030   -0.4185   -1.3649 H   0  0  0  0  0  0  0  0  0  0  0  0
   -5.2011   -1.1460    0.1184 H   0  0  0  0  0  0  0  0  0  0  0  0
    2.0818    0.0257   -1.8697 H   0  0  0  0  0  0  0  0  0  0  0  0
   -2.6207   -1.8010   -1.1087 H   0  0  0  0  0  0  0  0  0  0  0  0
    4.7496   -1.7334   -0.5316 H   0  0  0  0  0  0  0  0  0  0  0  0
    3.3980   -1.9967   -1.6423 H   0  0  0  0  0  0  0  0  0  0  0  0
    3.3231   -2.6566   -0.0026 H   0  0  0  0  0  0  0  0  0  0  0  0
    3.1923    0.8235    1.6227 H   0  0  0  0  0  0  0  0  0  0  0  0
    4.3606   -0.4655    1.5725 H   0  0  0  0  0  0  0  0  0  0  0  0
    2.6834   -0.8370    1.9969 H   0  0  0  0  0  0  0  0  0  0  0  0
  1  5  1  0  0  0  0
  1 28  1  0  0  0  0
  2  3  1  0  0  0  0
  2  4  1  0  0  0  0
  2  7  1  0  0  0  0
  2 13  1  0  0  0  0
  3  5  1  0  0  0  0
  3 14  1  0  0  0  0
  3 15  1  0  0  0  0
  4  6  1  0  0  0  0
  4 16  1  0  0  0  0
  4 17  1  0  0  0  0
  5  8  1  0  0  0  0
  5 18  1  0  0  0  0
  6  9  1  0  0  0  0
  6 19  1  0  0  0  0
  6 20  1  0  0  0  0
  7 21  1  0  0  0  0
  7 22  1  0  0  0  0
  7 23  1  0  0  0  0
  8 24  1  0  0  0  0
  8 25  1  0  0  0  0
  8 26  1  0  0  0  0
  9 10  2  0  0  0  0
  9 27  1  0  0  0  0
 10 11  1  0  0  0  0
 10 12  1  0  0  0  0
 11 29  1  0  0  0  0
 11 30  1  0  0  0  0
 11 31  1  0  0  0  0
 12 32  1  0  0  0  0
 12 33  1  0  0  0  0
 12 34  1  0  0  0  0
M  END
> <PUBCHEM_COMPOUND_CID>
162418

> <PUBCHEM_CONFORMER_RMSD>
0.6

> <PUBCHEM_CONFORMER_DIVERSEORDER>
2
99
158
152
178
77
71
212
143
26
79
187
185
41
154
37
8
153
10
170
45
83
141
87
94
199
4
17
190
52
203
176
32
146
200
73
135
177
91
55
111
131
120
156
56
206
207
162
217
140
151
66
65
204
70
145
108
13
53
139
93
104
179
193
195
85
115
211
173
1
215
27
202
127
118
132
125
81
159
78
42
96
95
67
209
189
198
174
40
76
49
114
61
192
25
171
47
218
89
142
133
186
57
68
97
166
122
138
7
149
172
117
39
124
210
201
175
30
19
86
90
214
50
63
148
59
216
46
126
144
109
113
188
18
119
155
194
6
48
169
16
164
21
5
116
167
54
69
205
75
182
82
183
9
12
130
180
112
35
128
103
88
134
15
33
129
43
72
181
28
44
100
137
191
197
62
150
51
168
24
64
121
36
98
80
20
31
163
147
110
136
123
38
84
161
102
157
213
11
14
60
29
160
107
208
196
165
106
23
92
34
58
101
22
105
3
184
74

> <PUBCHEM_MMFF94_PARTIAL_CHARGES>
9
1 -0.68
10 -0.28
11 0.14
12 0.14
27 0.15
28 0.4
5 0.28
6 0.14
9 -0.29

> <PUBCHEM_EFFECTIVE_ROTOR_COUNT>
5

> <PUBCHEM_PHARMACOPHORE_FEATURES>
5
1 1 acceptor
1 1 donor
1 7 hydrophobe
3 10 11 12 hydrophobe
5 2 3 4 6 9 hydrophobe

> <PUBCHEM_HEAVY_ATOM_COUNT>
12

> <PUBCHEM_ATOM_DEF_STEREO_COUNT>
0

> <PUBCHEM_ATOM_UDEF_STEREO_COUNT>
2

> <PUBCHEM_BOND_DEF_STEREO_COUNT>
0

> <PUBCHEM_BOND_UDEF_STEREO_COUNT>
0

> <PUBCHEM_ISOTOPIC_ATOM_COUNT>
0

> <PUBCHEM_COMPONENT_COUNT>
1

> <PUBCHEM_CACTVS_TAUTO_COUNT>
1

> <PUBCHEM_CONFORMER_ID>
00027A7200000002

> <PUBCHEM_MMFF94_ENERGY>
14.1446

> <PUBCHEM_FEATURE_SELFOVERLAP>
25.458

> <PUBCHEM_SHAPE_FINGERPRINT>
10130415 120 17917158281453977025
10857977 72 15625955252178607353
11715629 250 8718828656634351946
11769659 78 18341612659118262893
12006461 19 18128826252828340630
12251169 10 14261346955518771956
12346645 44 10231752275555811644
12815109 37 18259980487850626104
13549 16 15285352895017027540
14251710 61 18409739455831666207
14251717 144 18335139803884736902
14252887 29 18410575093685640872
14350558 41 18342744013533344630
177051 138 18273216378539496046
17834072 14 18410845547475758436
17834072 8 18041274383955014197
18186145 218 16732701675070963453
20645477 70 18261111919501292351
20653085 51 11530771383529759484
20671657 53 18409172090730823708
20711983 171 8286201638883824145
20742870 56 17822006518936286197
20871998 22 18409728426856595756
21501925 9 18412821404220099636
21524375 3 10447932758693916620
21652331 79 9223230741374567727
22485316 2 18131066065176922703
22959321 54 9151176445702601343
22959321 60 11455880386676432205
23532345 42 18411695483302416790
449060 62 11743843581381320056
4990 188 17386004001058035971
94968 8 18261116266235094502
9882013 296 14045741538748222731

> <PUBCHEM_SHAPE_MULTIPOLES>
241.09
7.67
1.65
1.15
3.04
0.2
0.47
4.06
-0.44
-0.55
-0.37
-0.57
-0.13
0.06

> <PUBCHEM_SHAPE_SELFOVERLAP>
440.688

> <PUBCHEM_SHAPE_VOLUME>
154.8

> <PUBCHEM_COORDINATE_TYPE>
2
5
10

$$$$
