162476
  -OEChem-11232109443D

 35 35  0     1  0  0  0  0  0999 V2000
    3.1946    0.2187    1.0675 O   0  0  0  0  0  0  0  0  0  0  0  0
   -1.8019   -0.5275    0.9292 O   0  0  0  0  0  0  0  0  0  0  0  0
   -1.3166   -1.4676   -1.1244 O   0  0  0  0  0  0  0  0  0  0  0  0
    2.9239   -0.1231   -0.2979 C   0  0  0  0  0  0  0  0  0  0  0  0
    2.2005    0.9856    0.3904 C   0  0  1  0  0  0  0  0  0  0  0  0
    0.8214    0.7770    0.9399 C   0  0  0  0  0  0  0  0  0  0  0  0
   -0.2511    0.9577   -0.1442 C   0  0  0  0  0  0  0  0  0  0  0  0
    2.3072   -1.4620   -0.4566 C   0  0  0  0  0  0  0  0  0  0  0  0
    4.0375    0.2119   -1.2176 C   0  0  0  0  0  0  0  0  0  0  0  0
   -1.6998    0.7809    0.3612 C   0  0  2  0  0  0  0  0  0  0  0  0
   -1.9794    1.7946    1.4787 C   0  0  0  0  0  0  0  0  0  0  0  0
   -2.7013    0.9823   -0.7573 C   0  0  0  0  0  0  0  0  0  0  0  0
   -2.4272    1.2948   -2.0301 C   0  0  0  0  0  0  0  0  0  0  0  0
   -1.5848   -1.5608    0.0658 C   0  0  0  0  0  0  0  0  0  0  0  0
   -1.7230   -2.8625    0.7956 C   0  0  0  0  0  0  0  0  0  0  0  0
    2.4219    2.0137    0.1398 H   0  0  0  0  0  0  0  0  0  0  0  0
    0.6869    1.5275    1.7265 H   0  0  0  0  0  0  0  0  0  0  0  0
    0.7192   -0.1951    1.4319 H   0  0  0  0  0  0  0  0  0  0  0  0
    0.0083    0.3110   -0.9859 H   0  0  0  0  0  0  0  0  0  0  0  0
   -0.1339    1.9799   -0.5353 H   0  0  0  0  0  0  0  0  0  0  0  0
    1.6417   -1.4756   -1.3255 H   0  0  0  0  0  0  0  0  0  0  0  0
    1.7372   -1.7908    0.4170 H   0  0  0  0  0  0  0  0  0  0  0  0
    3.0794   -2.2214   -0.6238 H   0  0  0  0  0  0  0  0  0  0  0  0
    3.6873    0.2145   -2.2551 H   0  0  0  0  0  0  0  0  0  0  0  0
    4.8461   -0.5220   -1.1336 H   0  0  0  0  0  0  0  0  0  0  0  0
    4.4653    1.1989   -1.0096 H   0  0  0  0  0  0  0  0  0  0  0  0
   -1.4078    1.5721    2.3859 H   0  0  0  0  0  0  0  0  0  0  0  0
   -1.7666    2.8222    1.1644 H   0  0  0  0  0  0  0  0  0  0  0  0
   -3.0322    1.7487    1.7853 H   0  0  0  0  0  0  0  0  0  0  0  0
   -3.7481    0.8446   -0.4913 H   0  0  0  0  0  0  0  0  0  0  0  0
   -3.2406    1.4049   -2.7407 H   0  0  0  0  0  0  0  0  0  0  0  0
   -1.4261    1.4510   -2.4104 H   0  0  0  0  0  0  0  0  0  0  0  0
   -2.7326   -2.9534    1.2040 H   0  0  0  0  0  0  0  0  0  0  0  0
   -0.9775   -2.9203    1.5925 H   0  0  0  0  0  0  0  0  0  0  0  0
   -1.5531   -3.6883    0.0989 H   0  0  0  0  0  0  0  0  0  0  0  0
  1  4  1  0  0  0  0
  1  5  1  0  0  0  0
  2 10  1  0  0  0  0
  2 14  1  0  0  0  0
  3 14  2  0  0  0  0
  4  5  1  0  0  0  0
  4  8  1  0  0  0  0
  4  9  1  0  0  0  0
  5  6  1  0  0  0  0
  5 16  1  0  0  0  0
  6  7  1  0  0  0  0
  6 17  1  0  0  0  0
  6 18  1  0  0  0  0
  7 10  1  0  0  0  0
  7 19  1  0  0  0  0
  7 20  1  0  0  0  0
  8 21  1  0  0  0  0
  8 22  1  0  0  0  0
  8 23  1  0  0  0  0
  9 24  1  0  0  0  0
  9 25  1  0  0  0  0
  9 26  1  0  0  0  0
 10 11  1  0  0  0  0
 10 12  1  0  0  0  0
 11 27  1  0  0  0  0
 11 28  1  0  0  0  0
 11 29  1  0  0  0  0
 12 13  2  0  0  0  0
 12 30  1  0  0  0  0
 13 31  1  0  0  0  0
 13 32  1  0  0  0  0
 14 15  1  0  0  0  0
 15 33  1  0  0  0  0
 15 34  1  0  0  0  0
 15 35  1  0  0  0  0
M  END
> <PUBCHEM_COMPOUND_CID>
162476

> <PUBCHEM_CONFORMER_RMSD>
0.8

> <PUBCHEM_CONFORMER_DIVERSEORDER>
4
14
119
88
99
40
110
73
62
87
94
101
30
127
10
100
22
59
116
96
46
63
109
74
19
83
8
50
105
56
48
49
55
57
104
47
61
45
91
90
72
134
21
98
25
69
70
15
68
132
65
20
124
123
113
26
86
78
97
130
24
77
58
54
60
11
67
135
43
12
53
84
2
125
85
51
106
120
23
126
5
37
44
16
118
71
79
18
112
33
122
35
75
103
29
93
111
7
92
80
13
34
31
28
128
108
32
64
3
38
42
27
52
76
117
6
131
133
39
129
102
66
41
107
36
114
121
81
17
95
1
89
115
82
9

> <PUBCHEM_MMFF94_PARTIAL_CHARGES>
17
1 -0.3
10 0.42
12 -0.29
13 -0.3
14 0.66
15 0.06
16 0.1
2 -0.43
3 -0.57
30 0.15
31 0.15
32 0.15
4 -0.04
5 -0.05
6 0.09
8 0.09
9 0.09

> <PUBCHEM_EFFECTIVE_ROTOR_COUNT>
6.6

> <PUBCHEM_PHARMACOPHORE_FEATURES>
4
1 1 acceptor
1 13 hydrophobe
1 3 acceptor
3 4 8 9 hydrophobe

> <PUBCHEM_HEAVY_ATOM_COUNT>
15

> <PUBCHEM_ATOM_DEF_STEREO_COUNT>
0

> <PUBCHEM_ATOM_UDEF_STEREO_COUNT>
2

> <PUBCHEM_BOND_DEF_STEREO_COUNT>
0

> <PUBCHEM_BOND_UDEF_STEREO_COUNT>
0

> <PUBCHEM_ISOTOPIC_ATOM_COUNT>
0

> <PUBCHEM_COMPONENT_COUNT>
1

> <PUBCHEM_CACTVS_TAUTO_COUNT>
1

> <PUBCHEM_CONFORMER_ID>
00027AAC00000004

> <PUBCHEM_MMFF94_ENERGY>
33.4422

> <PUBCHEM_FEATURE_SELFOVERLAP>
20.297

> <PUBCHEM_SHAPE_FINGERPRINT>
11127187 94 18413389855952553413
11322862 65 18409736149213198495
12138202 97 18261104158326589911
12173636 292 18267878197920929129
12500047 106 18261385620745381372
12592029 89 17971182630771312785
12932764 1 17967535683677453176
13024252 1 14923664181811364897
13296908 3 18059860601414496528
15775835 57 17822008679499943464
15852999 172 18194657346487345726
16945 1 18341895164834643504
18619055 16 18261951830605321352
19766037 51 18050584115947225382
19868273 293 17894901906453787596
20201158 50 18201996603972432798
20279233 1 18272362075511650352
20523700 14 18410014325612470798
20645476 183 17894909590166162851
20871999 31 18334296499877577621
21524375 3 17127348090859947649
21665056 4 18260542290847787251
23557571 272 18265326386389267824
23559900 14 18341050736574732770
2748010 2 18055904631291821152
3248919 1 18272928319636695352
4175511 318 18113620066591722932
74978 22 18411419509915393152
8030462 33 18060136505660680484
81228 2 18189332549403072235

> <PUBCHEM_SHAPE_MULTIPOLES>
291.09
5.7
2.26
1.5
5.42
1.79
0.34
-0.77
1.36
-1.87
-0.32
-0.65
-0.55
0.52

> <PUBCHEM_SHAPE_SELFOVERLAP>
573.587

> <PUBCHEM_SHAPE_VOLUME>
175.1

> <PUBCHEM_COORDINATE_TYPE>
2
5
10

$$$$
