162493
  -OEChem-11232109093D

 24 24  0     0  0  0  0  0  0999 V2000
    1.7460    0.5102    0.1310 O   0  0  0  0  0  0  0  0  0  0  0  0
    3.2379   -1.7630    0.2217 O   0  0  0  0  0  0  0  0  0  0  0  0
   -0.2160    1.7333    0.8241 C   0  0  0  0  0  0  0  0  0  0  0  0
   -1.1754    0.6759    0.3921 C   0  0  0  0  0  0  0  0  0  0  0  0
    1.0681    1.7520   -0.0105 C   0  0  0  0  0  0  0  0  0  0  0  0
   -2.1356    0.9599   -0.5789 C   0  0  0  0  0  0  0  0  0  0  0  0
   -1.1125   -0.5969    0.9595 C   0  0  0  0  0  0  0  0  0  0  0  0
   -3.0328   -0.0289   -0.9826 C   0  0  0  0  0  0  0  0  0  0  0  0
   -2.0096   -1.5857    0.5557 C   0  0  0  0  0  0  0  0  0  0  0  0
   -2.9698   -1.3017   -0.4154 C   0  0  0  0  0  0  0  0  0  0  0  0
    2.9467    0.4826   -0.6284 C   0  0  0  0  0  0  0  0  0  0  0  0
    3.6529   -0.8379   -0.4683 C   0  0  0  0  0  0  0  0  0  0  0  0
    0.0401    1.5738    1.8797 H   0  0  0  0  0  0  0  0  0  0  0  0
   -0.6975    2.7178    0.7749 H   0  0  0  0  0  0  0  0  0  0  0  0
    1.7152    2.5639    0.3413 H   0  0  0  0  0  0  0  0  0  0  0  0
    0.8316    1.9237   -1.0676 H   0  0  0  0  0  0  0  0  0  0  0  0
   -2.1938    1.9470   -1.0299 H   0  0  0  0  0  0  0  0  0  0  0  0
   -0.3698   -0.8322    1.7172 H   0  0  0  0  0  0  0  0  0  0  0  0
   -3.7801    0.1920   -1.7391 H   0  0  0  0  0  0  0  0  0  0  0  0
   -1.9605   -2.5767    0.9972 H   0  0  0  0  0  0  0  0  0  0  0  0
   -3.6682   -2.0716   -0.7300 H   0  0  0  0  0  0  0  0  0  0  0  0
    3.6266    1.2705   -0.2879 H   0  0  0  0  0  0  0  0  0  0  0  0
    2.7238    0.6172   -1.6919 H   0  0  0  0  0  0  0  0  0  0  0  0
    4.5993   -0.9344   -1.0273 H   0  0  0  0  0  0  0  0  0  0  0  0
  1  5  1  0  0  0  0
  1 11  1  0  0  0  0
  2 12  2  0  0  0  0
  3  4  1  0  0  0  0
  3  5  1  0  0  0  0
  3 13  1  0  0  0  0
  3 14  1  0  0  0  0
  4  6  2  0  0  0  0
  4  7  1  0  0  0  0
  5 15  1  0  0  0  0
  5 16  1  0  0  0  0
  6  8  1  0  0  0  0
  6 17  1  0  0  0  0
  7  9  2  0  0  0  0
  7 18  1  0  0  0  0
  8 10  2  0  0  0  0
  8 19  1  0  0  0  0
  9 10  1  0  0  0  0
  9 20  1  0  0  0  0
 10 21  1  0  0  0  0
 11 12  1  0  0  0  0
 11 22  1  0  0  0  0
 11 23  1  0  0  0  0
 12 24  1  0  0  0  0
M  END
> <PUBCHEM_COMPOUND_CID>
162493

> <PUBCHEM_CONFORMER_RMSD>
0.6

> <PUBCHEM_CONFORMER_DIVERSEORDER>
1
13
14
18
12
38
26
34
21
31
28
3
24
7
23
19
41
6
15
40
9
27
39
2
10
16
29
30
22
32
20
8
37
36
17
5
35
11
4
33
25

> <PUBCHEM_MMFF94_PARTIAL_CHARGES>
18
1 -0.56
10 -0.15
11 0.34
12 0.45
17 0.15
18 0.15
19 0.15
2 -0.57
20 0.15
21 0.15
24 0.06
3 0.14
4 -0.14
5 0.28
6 -0.15
7 -0.15
8 -0.15
9 -0.15

> <PUBCHEM_EFFECTIVE_ROTOR_COUNT>
5

> <PUBCHEM_PHARMACOPHORE_FEATURES>
3
1 1 acceptor
1 2 acceptor
6 4 6 7 8 9 10 rings

> <PUBCHEM_HEAVY_ATOM_COUNT>
12

> <PUBCHEM_ATOM_DEF_STEREO_COUNT>
0

> <PUBCHEM_ATOM_UDEF_STEREO_COUNT>
0

> <PUBCHEM_BOND_DEF_STEREO_COUNT>
0

> <PUBCHEM_BOND_UDEF_STEREO_COUNT>
0

> <PUBCHEM_ISOTOPIC_ATOM_COUNT>
0

> <PUBCHEM_COMPONENT_COUNT>
1

> <PUBCHEM_CACTVS_TAUTO_COUNT>
2

> <PUBCHEM_CONFORMER_ID>
00027ABD00000001

> <PUBCHEM_MMFF94_ENERGY>
22.39

> <PUBCHEM_FEATURE_SELFOVERLAP>
15.229

> <PUBCHEM_SHAPE_FINGERPRINT>
10857977 72 12319189480839903193
11031198 65 14129050409292635464
11127187 94 18335426763560935119
11137873 295 18410862061635482963
12186901 62 17095235930779365999
12251169 10 11455891373023290428
12716758 59 18334848429282709169
13549 16 18187356589337007045
17834072 14 18339627997896771208
18619055 16 18335423478153527188
20201158 50 18410011078311330550
20361792 2 17703793655852608293
20645477 70 18129942402784511405
20653085 51 16877665668885668493
20671657 53 18411985762809337428
20828058 19 17989486324854894028
22802520 49 18042404801835252841
23403322 49 18412546475069077286
23559900 14 18411408502404772064
27216 239 9439108841239019790

> <PUBCHEM_SHAPE_MULTIPOLES>
235.22
6.02
1.94
0.97
4.18
0.02
-0.01
2.94
1.75
0.33
-0.28
-0.37
-0.03
0.13

> <PUBCHEM_SHAPE_SELFOVERLAP>
472.258

> <PUBCHEM_SHAPE_VOLUME>
137.5

> <PUBCHEM_COORDINATE_TYPE>
2
5
10

$$$$
