162452
  -OEChem-11232109003D

 36 37  0     1  0  0  0  0  0999 V2000
   -2.4543    0.1422    1.4424 O   0  0  0  0  0  0  0  0  0  0  0  0
    0.4880   -0.4870   -0.4977 C   0  0  1  0  0  0  0  0  0  0  0  0
    1.9832   -0.6228   -0.0228 C   0  0  0  0  0  0  0  0  0  0  0  0
   -0.4322   -1.5579    0.1300 C   0  0  0  0  0  0  0  0  0  0  0  0
   -0.0981    0.9055   -0.3005 C   0  0  0  0  0  0  0  0  0  0  0  0
   -2.4458   -0.0217    0.0213 C   0  0  2  0  0  0  0  0  0  0  0  0
    2.7521    0.6625   -0.4126 C   0  0  0  0  0  0  0  0  0  0  0  0
   -1.8914   -1.4133   -0.3081 C   0  0  0  0  0  0  0  0  0  0  0  0
   -1.5706    1.0724   -0.6067 C   0  0  0  0  0  0  0  0  0  0  0  0
    2.1391    1.9191    0.2051 C   0  0  0  0  0  0  0  0  0  0  0  0
    0.6520    1.9654    0.0486 C   0  0  0  0  0  0  0  0  0  0  0  0
    2.6544   -1.8168   -0.7341 C   0  0  0  0  0  0  0  0  0  0  0  0
    2.1157   -0.8490    1.5003 C   0  0  0  0  0  0  0  0  0  0  0  0
   -3.8921    0.1015   -0.4653 C   0  0  0  0  0  0  0  0  0  0  0  0
    0.4746   -0.6515   -1.5861 H   0  0  0  0  0  0  0  0  0  0  0  0
   -0.4010   -1.5035    1.2242 H   0  0  0  0  0  0  0  0  0  0  0  0
   -0.0855   -2.5599   -0.1464 H   0  0  0  0  0  0  0  0  0  0  0  0
    2.7522    0.7686   -1.5065 H   0  0  0  0  0  0  0  0  0  0  0  0
    3.8054    0.5928   -0.1128 H   0  0  0  0  0  0  0  0  0  0  0  0
   -1.9677   -1.6087   -1.3852 H   0  0  0  0  0  0  0  0  0  0  0  0
   -2.4801   -2.1830    0.2065 H   0  0  0  0  0  0  0  0  0  0  0  0
   -1.9172    2.0573   -0.2677 H   0  0  0  0  0  0  0  0  0  0  0  0
   -1.6860    1.0512   -1.6985 H   0  0  0  0  0  0  0  0  0  0  0  0
    2.5779    2.7978   -0.2820 H   0  0  0  0  0  0  0  0  0  0  0  0
    2.3904    1.9910    1.2692 H   0  0  0  0  0  0  0  0  0  0  0  0
    0.1859    2.9389    0.1776 H   0  0  0  0  0  0  0  0  0  0  0  0
    3.7129   -1.8936   -0.4595 H   0  0  0  0  0  0  0  0  0  0  0  0
    2.1786   -2.7665   -0.4697 H   0  0  0  0  0  0  0  0  0  0  0  0
    2.6035   -1.7093   -1.8233 H   0  0  0  0  0  0  0  0  0  0  0  0
    3.1618   -0.7690    1.8182 H   0  0  0  0  0  0  0  0  0  0  0  0
    1.5371   -0.1208    2.0775 H   0  0  0  0  0  0  0  0  0  0  0  0
    1.7743   -1.8487    1.7907 H   0  0  0  0  0  0  0  0  0  0  0  0
   -3.9671   -0.0325   -1.5492 H   0  0  0  0  0  0  0  0  0  0  0  0
   -4.5311   -0.6438    0.0220 H   0  0  0  0  0  0  0  0  0  0  0  0
   -4.3087    1.0823   -0.2088 H   0  0  0  0  0  0  0  0  0  0  0  0
   -2.7984    1.0298    1.6407 H   0  0  0  0  0  0  0  0  0  0  0  0
  1  6  1  0  0  0  0
  1 36  1  0  0  0  0
  2  3  1  0  0  0  0
  2  4  1  0  0  0  0
  2  5  1  0  0  0  0
  2 15  1  0  0  0  0
  3  7  1  0  0  0  0
  3 12  1  0  0  0  0
  3 13  1  0  0  0  0
  4  8  1  0  0  0  0
  4 16  1  0  0  0  0
  4 17  1  0  0  0  0
  5  9  1  0  0  0  0
  5 11  2  0  0  0  0
  6  8  1  0  0  0  0
  6  9  1  0  0  0  0
  6 14  1  0  0  0  0
  7 10  1  0  0  0  0
  7 18  1  0  0  0  0
  7 19  1  0  0  0  0
  8 20  1  0  0  0  0
  8 21  1  0  0  0  0
  9 22  1  0  0  0  0
  9 23  1  0  0  0  0
 10 11  1  0  0  0  0
 10 24  1  0  0  0  0
 10 25  1  0  0  0  0
 11 26  1  0  0  0  0
 12 27  1  0  0  0  0
 12 28  1  0  0  0  0
 12 29  1  0  0  0  0
 13 30  1  0  0  0  0
 13 31  1  0  0  0  0
 13 32  1  0  0  0  0
 14 33  1  0  0  0  0
 14 34  1  0  0  0  0
 14 35  1  0  0  0  0
M  END
> <PUBCHEM_COMPOUND_CID>
162452

> <PUBCHEM_CONFORMER_RMSD>
0.6

> <PUBCHEM_CONFORMER_DIVERSEORDER>
3
6
12
1
4
5
10
11
9
7
2
8

> <PUBCHEM_MMFF94_PARTIAL_CHARGES>
9
1 -0.68
10 0.14
11 -0.29
2 0.14
26 0.15
36 0.4
5 -0.28
6 0.28
9 0.14

> <PUBCHEM_EFFECTIVE_ROTOR_COUNT>
1.4

> <PUBCHEM_PHARMACOPHORE_FEATURES>
5
1 1 acceptor
1 1 donor
3 3 12 13 hydrophobe
6 2 3 5 7 10 11 rings
6 2 4 5 6 8 9 rings

> <PUBCHEM_HEAVY_ATOM_COUNT>
14

> <PUBCHEM_ATOM_DEF_STEREO_COUNT>
0

> <PUBCHEM_ATOM_UDEF_STEREO_COUNT>
2

> <PUBCHEM_BOND_DEF_STEREO_COUNT>
0

> <PUBCHEM_BOND_UDEF_STEREO_COUNT>
0

> <PUBCHEM_ISOTOPIC_ATOM_COUNT>
0

> <PUBCHEM_COMPONENT_COUNT>
1

> <PUBCHEM_CACTVS_TAUTO_COUNT>
1

> <PUBCHEM_CONFORMER_ID>
00027A9400000003

> <PUBCHEM_MMFF94_ENERGY>
31.3317

> <PUBCHEM_FEATURE_SELFOVERLAP>
25.39

> <PUBCHEM_SHAPE_FINGERPRINT>
10130415 120 18261105227720666530
10967382 1 18411136956579722125
10980938 120 18410855503093847436
11086676 242 18262524675942035408
11132069 177 18339072804585857368
11471102 20 18411133641002288669
12382932 28 18338510971017971616
12491281 212 18129118842610421800
12524768 44 18409731780777583070
12696612 119 18335133245675313284
12932764 1 17967530164412141783
13172582 1 18412255121277007202
13221675 6 18409733984290841772
13296908 3 18040721376529142331
13380535 21 18265065793252932286
13380535 76 18266452294722027462
13571099 22 18342174445072217573
13897977 150 18338793545595961293
14144814 61 18413390947095824953
14251717 144 18412255143231839863
14648413 74 18339646749396931118
14817 1 15551934862460509624
14993402 34 18342178860198481559
15775835 57 18335139838270673701
161256 15 18407759231311248444
16945 1 18411986892132424708
17844478 74 17967827054116154945
17990270 104 18411980269350720710
18186145 218 18113893828355549301
20201158 50 18410854369322604238
20645477 70 18409721872815623559
20715346 28 18114189674118732747
20871998 22 18269272357622297998
21501502 16 18266732661412618015
21524375 3 17760362589005187368
2334 1 18265614479620158423
23419403 2 14505296571120405610
23552423 10 18116150167438047821
2748010 2 18264480707091107428
5084963 1 18059852818469727375
528862 383 18335132137362799792
528886 8 18342738563325308484
53812653 166 18340202015743823056
63268167 104 18411985788288802473
7364860 26 18343581867485351476
74978 22 18413110575857267599

> <PUBCHEM_SHAPE_MULTIPOLES>
282.24
4.98
2
1.01
2.67
0.25
-0.33
-0.35
0.13
-1.11
0.13
-0.13
-0.17
0.1

> <PUBCHEM_SHAPE_SELFOVERLAP>
578.594

> <PUBCHEM_SHAPE_VOLUME>
162.1

> <PUBCHEM_COORDINATE_TYPE>
2
5
10

$$$$
