162626
  -OEChem-11232109243D

 31 31  0     1  0  0  0  0  0999 V2000
   -1.0200    0.0819    0.3600 O   0  0  0  0  0  0  0  0  0  0  0  0
    0.1267    1.9574    1.0432 O   0  0  0  0  0  0  0  0  0  0  0  0
    2.4636    2.1016   -0.3356 O   0  0  0  0  0  0  0  0  0  0  0  0
   -3.4331   -0.2359    0.3748 C   0  0  2  0  0  0  0  0  0  0  0  0
   -3.5443   -0.6057   -1.1169 C   0  0  0  0  0  0  0  0  0  0  0  0
   -2.2575    0.7017    0.6809 C   0  0  0  0  0  0  0  0  0  0  0  0
   -3.3220   -1.5187    1.2066 C   0  0  0  0  0  0  0  0  0  0  0  0
   -3.7330    0.5979   -2.0290 C   0  0  0  0  0  0  0  0  0  0  0  0
    0.0990    0.8233    0.5909 C   0  0  0  0  0  0  0  0  0  0  0  0
    1.3198    0.0667    0.2147 C   0  0  0  0  0  0  0  0  0  0  0  0
    2.4386    0.7431   -0.2288 C   0  0  0  0  0  0  0  0  0  0  0  0
    1.2907   -1.3101    0.3226 C   0  0  0  0  0  0  0  0  0  0  0  0
    3.5751    0.0136   -0.5784 C   0  0  0  0  0  0  0  0  0  0  0  0
    2.4272   -2.0394   -0.0272 C   0  0  0  0  0  0  0  0  0  0  0  0
    3.5692   -1.3776   -0.4778 C   0  0  0  0  0  0  0  0  0  0  0  0
   -4.3566    0.2781    0.6713 H   0  0  0  0  0  0  0  0  0  0  0  0
   -2.6557   -1.1619   -1.4395 H   0  0  0  0  0  0  0  0  0  0  0  0
   -4.4009   -1.2776   -1.2540 H   0  0  0  0  0  0  0  0  0  0  0  0
   -2.2640    0.9467    1.7507 H   0  0  0  0  0  0  0  0  0  0  0  0
   -2.3579    1.6406    0.1252 H   0  0  0  0  0  0  0  0  0  0  0  0
   -2.4384   -2.1047    0.9321 H   0  0  0  0  0  0  0  0  0  0  0  0
   -4.2033   -2.1521    1.0590 H   0  0  0  0  0  0  0  0  0  0  0  0
   -3.2568   -1.2850    2.2746 H   0  0  0  0  0  0  0  0  0  0  0  0
   -4.5786    1.2113   -1.7025 H   0  0  0  0  0  0  0  0  0  0  0  0
   -2.8372    1.2248   -2.0590 H   0  0  0  0  0  0  0  0  0  0  0  0
   -3.9327    0.2637   -3.0524 H   0  0  0  0  0  0  0  0  0  0  0  0
    0.4211   -1.8509    0.6840 H   0  0  0  0  0  0  0  0  0  0  0  0
    4.4720    0.5158   -0.9311 H   0  0  0  0  0  0  0  0  0  0  0  0
    2.4242   -3.1226    0.0544 H   0  0  0  0  0  0  0  0  0  0  0  0
    4.4542   -1.9456   -0.7494 H   0  0  0  0  0  0  0  0  0  0  0  0
    3.3363    2.3786   -0.6638 H   0  0  0  0  0  0  0  0  0  0  0  0
  1  6  1  0  0  0  0
  1  9  1  0  0  0  0
  2  9  2  0  0  0  0
  3 11  1  0  0  0  0
  3 31  1  0  0  0  0
  4  5  1  0  0  0  0
  4  6  1  0  0  0  0
  4  7  1  0  0  0  0
  4 16  1  0  0  0  0
  5  8  1  0  0  0  0
  5 17  1  0  0  0  0
  5 18  1  0  0  0  0
  6 19  1  0  0  0  0
  6 20  1  0  0  0  0
  7 21  1  0  0  0  0
  7 22  1  0  0  0  0
  7 23  1  0  0  0  0
  8 24  1  0  0  0  0
  8 25  1  0  0  0  0
  8 26  1  0  0  0  0
  9 10  1  0  0  0  0
 10 11  1  0  0  0  0
 10 12  2  0  0  0  0
 11 13  2  0  0  0  0
 12 14  1  0  0  0  0
 12 27  1  0  0  0  0
 13 15  1  0  0  0  0
 13 28  1  0  0  0  0
 14 15  2  0  0  0  0
 14 29  1  0  0  0  0
 15 30  1  0  0  0  0
M  END
> <PUBCHEM_COMPOUND_CID>
162626

> <PUBCHEM_CONFORMER_RMSD>
0.6

> <PUBCHEM_CONFORMER_DIVERSEORDER>
4
273
78
69
324
139
308
43
171
208
167
205
240
316
70
331
304
247
310
13
297
328
277
268
323
291
252
156
47
217
274
276
126
180
279
191
330
262
306
56
278
90
160
45
299
225
164
198
153
169
74
287
233
293
38
173
23
270
41
76
96
122
230
285
298
146
203
192
197
170
201
325
128
271
215
113
210
236
314
329
313
267
320
286
258
66
196
158
305
226
281
303
80
133
127
95
29
284
142
120
97
309
34
272
94
312
206
63
134
174
194
60
64
212
105
131
83
154
249
98
223
253
40
301
213
322
101
200
7
157
280
317
221
143
185
254
224
75
163
318
8
71
222
88
148
165
107
26
108
211
21
246
135
147
234
188
229
315
100
187
137
51
292
307
118
42
6
138
282
175
93
250
235
73
214
110
115
155
141
59
168
319
89
300
39
65
3
86
241
195
245
62
248
181
207
145
123
251
151
111
289
216
193
67
5
144
190
22
130
140
311
36
176
82
288
132
237
27
125
321
172
256
91
11
283
33
266
28
61
68
109
255
327
30
161
17
152
20
302
124
84
32
58
55
179
295
14
231
227
24
46
204
1
106
232
112
186
263
129
57
103
239
199
275
177
53
260
18
54
37
35
50
294
92
184
269
209
79
44
31
189
2
257
166
182
242
220
10
261
265
81
136
238
202
48
114
16
87
52
243
159
85
162
121
178
99
228
219
104
15
102
119
218
77
12
244
259
150
296
290
49
117
72
183
149
326
116
264
9
25
19

> <PUBCHEM_MMFF94_PARTIAL_CHARGES>
16
1 -0.43
10 0.09
11 0.08
12 -0.15
13 -0.15
14 -0.15
15 -0.15
2 -0.57
27 0.15
28 0.15
29 0.15
3 -0.53
30 0.15
31 0.45
6 0.28
9 0.63

> <PUBCHEM_EFFECTIVE_ROTOR_COUNT>
5

> <PUBCHEM_PHARMACOPHORE_FEATURES>
5
1 2 acceptor
1 3 donor
1 7 hydrophobe
1 8 hydrophobe
6 10 11 12 13 14 15 rings

> <PUBCHEM_HEAVY_ATOM_COUNT>
15

> <PUBCHEM_ATOM_DEF_STEREO_COUNT>
0

> <PUBCHEM_ATOM_UDEF_STEREO_COUNT>
1

> <PUBCHEM_BOND_DEF_STEREO_COUNT>
0

> <PUBCHEM_BOND_UDEF_STEREO_COUNT>
0

> <PUBCHEM_ISOTOPIC_ATOM_COUNT>
0

> <PUBCHEM_COMPONENT_COUNT>
1

> <PUBCHEM_CACTVS_TAUTO_COUNT>
4

> <PUBCHEM_CONFORMER_ID>
00027B4200000004

> <PUBCHEM_MMFF94_ENERGY>
33.6335

> <PUBCHEM_FEATURE_SELFOVERLAP>
25.371

> <PUBCHEM_SHAPE_FINGERPRINT>
10498660 4 16371271248271012797
11137873 295 18412542094413172007
11543360 7 17023200360716722326
11578080 2 17273956004934572937
11806522 49 18341619183627298522
12251169 10 9727628419192896873
12346177 29 15913322456289829245
12553582 1 18060422408553436059
12932764 1 17418095433842204801
13296908 3 18408326600880819899
13705890 14 18186807988937711314
14123260 362 13695871402782815943
14289901 80 13542458799927027431
14576447 43 18130781304218200894
15375462 189 17988651825831547323
18186145 218 17967536761381499929
18522851 268 17895197752760264527
18915474 69 17917708023897660270
19422 9 18059866064238396225
19433438 38 17822012020947849451
200 152 18272084963762724494
20233049 118 13623532372391267270
20281475 54 18272090521867195507
20361792 2 17846773005751998697
20645477 56 17530680996821340829
20645477 70 18342458140478753855
20671657 53 18336270033287237158
20871999 31 17603867815028743087
21713013 43 18113908177683503551
221490 88 18263660583286480706
22646028 28 17774997999224513495
23402539 116 18270402672913789414
23402655 69 18410295770118364812
23503958 8 15195287534184232607
23557571 272 17313387867961299941
23559900 14 18334856091826105874
251288 83 16056011637444542482
2748010 2 18050305948538002672
2838139 119 15720828855550476670
2871803 45 18114180908275780395
5281201 14 17821733827341652717
57096353 35 18341906181631408212
93112 12 18259982648166357125

> <PUBCHEM_SHAPE_MULTIPOLES>
291.09
7.69
1.9
1.27
2.87
0.02
0.43
-1.76
2.53
-1.09
-0.28
1.59
0.14
0.64

> <PUBCHEM_SHAPE_SELFOVERLAP>
593.126

> <PUBCHEM_SHAPE_VOLUME>
168.9

> <PUBCHEM_COORDINATE_TYPE>
2
5
10

$$$$
