162627
  -OEChem-11232109113D

 29 28  0     1  0  0  0  0  0999 V2000
   -0.1656   -0.2568    0.0279 O   0  0  0  0  0  0  0  0  0  0  0  0
    1.2846    0.0567   -1.7389 O   0  0  0  0  0  0  0  0  0  0  0  0
   -2.5800   -0.5297   -0.1150 C   0  0  1  0  0  0  0  0  0  0  0  0
   -2.9359    0.6311    0.8338 C   0  0  0  0  0  0  0  0  0  0  0  0
   -1.2630   -0.3134   -0.8725 C   0  0  0  0  0  0  0  0  0  0  0  0
   -2.5257   -1.8369    0.6839 C   0  0  0  0  0  0  0  0  0  0  0  0
   -3.0876    1.9699    0.1261 C   0  0  0  0  0  0  0  0  0  0  0  0
    2.1179   -0.0305    0.5444 C   0  0  0  0  0  0  0  0  0  0  0  0
    3.5221    0.1544   -0.0253 C   0  0  0  0  0  0  0  0  0  0  0  0
    1.0667   -0.0657   -0.5414 C   0  0  0  0  0  0  0  0  0  0  0  0
    4.5666    0.2209    1.0770 C   0  0  0  0  0  0  0  0  0  0  0  0
   -3.3820   -0.6221   -0.8588 H   0  0  0  0  0  0  0  0  0  0  0  0
   -3.8825    0.4007    1.3386 H   0  0  0  0  0  0  0  0  0  0  0  0
   -2.1772    0.7273    1.6200 H   0  0  0  0  0  0  0  0  0  0  0  0
   -1.3045    0.6052   -1.4680 H   0  0  0  0  0  0  0  0  0  0  0  0
   -1.1084   -1.1511   -1.5646 H   0  0  0  0  0  0  0  0  0  0  0  0
   -1.7717   -1.7969    1.4772 H   0  0  0  0  0  0  0  0  0  0  0  0
   -2.2874   -2.6824    0.0299 H   0  0  0  0  0  0  0  0  0  0  0  0
   -3.4941   -2.0430    1.1525 H   0  0  0  0  0  0  0  0  0  0  0  0
   -2.1301    2.3335   -0.2578 H   0  0  0  0  0  0  0  0  0  0  0  0
   -3.7940    1.8980   -0.7067 H   0  0  0  0  0  0  0  0  0  0  0  0
   -3.4658    2.7220    0.8264 H   0  0  0  0  0  0  0  0  0  0  0  0
    1.8797    0.7982    1.2205 H   0  0  0  0  0  0  0  0  0  0  0  0
    2.0663   -0.9725    1.1018 H   0  0  0  0  0  0  0  0  0  0  0  0
    3.7619   -0.6729   -0.7040 H   0  0  0  0  0  0  0  0  0  0  0  0
    3.5670    1.0746   -0.6203 H   0  0  0  0  0  0  0  0  0  0  0  0
    5.5643    0.3522    0.6465 H   0  0  0  0  0  0  0  0  0  0  0  0
    4.3737    1.0623    1.7501 H   0  0  0  0  0  0  0  0  0  0  0  0
    4.5706   -0.6998    1.6694 H   0  0  0  0  0  0  0  0  0  0  0  0
  1  5  1  0  0  0  0
  1 10  1  0  0  0  0
  2 10  2  0  0  0  0
  3  4  1  0  0  0  0
  3  5  1  0  0  0  0
  3  6  1  0  0  0  0
  3 12  1  0  0  0  0
  4  7  1  0  0  0  0
  4 13  1  0  0  0  0
  4 14  1  0  0  0  0
  5 15  1  0  0  0  0
  5 16  1  0  0  0  0
  6 17  1  0  0  0  0
  6 18  1  0  0  0  0
  6 19  1  0  0  0  0
  7 20  1  0  0  0  0
  7 21  1  0  0  0  0
  7 22  1  0  0  0  0
  8  9  1  0  0  0  0
  8 10  1  0  0  0  0
  8 23  1  0  0  0  0
  8 24  1  0  0  0  0
  9 11  1  0  0  0  0
  9 25  1  0  0  0  0
  9 26  1  0  0  0  0
 11 27  1  0  0  0  0
 11 28  1  0  0  0  0
 11 29  1  0  0  0  0
M  END
> <PUBCHEM_COMPOUND_CID>
162627

> <PUBCHEM_CONFORMER_RMSD>
0.8

> <PUBCHEM_CONFORMER_DIVERSEORDER>
1
572
180
134
143
551
9
204
194
395
414
604
589
331
2
584
316
85
638
310
259
34
449
388
305
319
68
562
582
117
348
463
65
578
650
207
62
503
247
249
648
569
374
48
217
129
210
647
232
605
246
615
517
8
97
355
59
187
36
321
456
619
297
6
31
42
510
10
295
79
254
184
454
152
4
54
124
489
74
300
479
15
599
39
55
14
299
109
598
525
20
530
171
423
93
7
538
13
84
35
357
285
381
178
349
27
286
400
203
103
23
28
182
606
16
422
537

> <PUBCHEM_MMFF94_PARTIAL_CHARGES>
5
1 -0.43
10 0.66
2 -0.57
5 0.28
8 0.06

> <PUBCHEM_EFFECTIVE_ROTOR_COUNT>
6

> <PUBCHEM_PHARMACOPHORE_FEATURES>
4
1 11 hydrophobe
1 2 acceptor
1 6 hydrophobe
1 7 hydrophobe

> <PUBCHEM_HEAVY_ATOM_COUNT>
11

> <PUBCHEM_ATOM_DEF_STEREO_COUNT>
0

> <PUBCHEM_ATOM_UDEF_STEREO_COUNT>
1

> <PUBCHEM_BOND_DEF_STEREO_COUNT>
0

> <PUBCHEM_BOND_UDEF_STEREO_COUNT>
0

> <PUBCHEM_ISOTOPIC_ATOM_COUNT>
0

> <PUBCHEM_COMPONENT_COUNT>
1

> <PUBCHEM_CACTVS_TAUTO_COUNT>
1

> <PUBCHEM_CONFORMER_ID>
00027B4300000001

> <PUBCHEM_MMFF94_ENERGY>
5.8567

> <PUBCHEM_FEATURE_SELFOVERLAP>
20.297

> <PUBCHEM_SHAPE_FINGERPRINT>
11543360 7 9583229578913580482
12251169 10 18186243926524463245
124424 183 18059851731990564792
12932764 1 17489596674738080182
13296909 8 18408600374991679269
14325111 11 15554165964995346622
15279308 16 17775571905359769281
18186145 218 15410620324037578624
18342897 55 15123506999732993908
20281407 28 14056717946153800424
20645464 45 18060425711573086855
20645477 70 15140950786241530506
20711985 327 17240481429382189446
20715346 28 17703244956753396375
20871999 31 9223232931955224651
21061003 4 14057010407735949821
21499 59 15267339630648015196
22926399 37 15267341812533437347
23380061 127 18410569617423120195
23402539 116 18341039801187155287
23402655 69 13614248044429257771
23500284 214 17988371360404428809
305870 269 18339361842731145779
3248919 1 18334021604970320431
53428517 29 18408881815656234752
57265010 4 18261388966160927794

> <PUBCHEM_SHAPE_MULTIPOLES>
214.64
7.59
1.38
1.16
6.55
0.15
-0.26
1.43
2.74
-2.11
0.29
0.4
-0.04
0.15

> <PUBCHEM_SHAPE_SELFOVERLAP>
391.435

> <PUBCHEM_SHAPE_VOLUME>
137.5

> <PUBCHEM_COORDINATE_TYPE>
2
5
10

$$$$
