163261
  -OEChem-11232109033D

 41 40  0     1  0  0  0  0  0999 V2000
    1.2979    1.2727    0.4030 O   0  0  0  0  0  0  0  0  0  0  0  0
    2.7400   -1.1698    0.2263 O   0  0  0  0  0  0  0  0  0  0  0  0
    2.2537    2.9757   -0.8310 O   0  0  0  0  0  0  0  0  0  0  0  0
    4.7421   -1.9112   -0.6563 O   0  0  0  0  0  0  0  0  0  0  0  0
   -1.2862    0.3160   -0.4755 C   0  0  0  0  0  0  0  0  0  0  0  0
   -2.4869   -0.6217   -0.3325 C   0  0  0  0  0  0  0  0  0  0  0  0
    0.0172   -0.4719   -0.6517 C   0  0  0  0  0  0  0  0  0  0  0  0
   -3.7829    0.1629   -0.1158 C   0  0  0  0  0  0  0  0  0  0  0  0
    1.2354    0.4522   -0.7625 C   0  0  2  0  0  0  0  0  0  0  0  0
   -4.9773   -0.7775    0.0592 C   0  0  0  0  0  0  0  0  0  0  0  0
   -6.3041   -0.0414    0.2559 C   0  0  0  0  0  0  0  0  0  0  0  0
    2.5470   -0.3195   -0.8971 C   0  0  0  0  0  0  0  0  0  0  0  0
   -7.5041   -0.9699    0.3591 C   0  0  0  0  0  0  0  0  0  0  0  0
    1.8328    2.5157    0.2218 C   0  0  0  0  0  0  0  0  0  0  0  0
    3.8864   -1.9150    0.2183 C   0  0  0  0  0  0  0  0  0  0  0  0
    1.8338    3.2598    1.5226 C   0  0  0  0  0  0  0  0  0  0  0  0
    3.9553   -2.7571    1.4562 C   0  0  0  0  0  0  0  0  0  0  0  0
   -1.4347    0.9774   -1.3376 H   0  0  0  0  0  0  0  0  0  0  0  0
   -1.2236    0.9531    0.4145 H   0  0  0  0  0  0  0  0  0  0  0  0
   -2.3241   -1.2992    0.5146 H   0  0  0  0  0  0  0  0  0  0  0  0
   -2.5775   -1.2434   -1.2314 H   0  0  0  0  0  0  0  0  0  0  0  0
    0.1333   -1.1325    0.2167 H   0  0  0  0  0  0  0  0  0  0  0  0
   -0.0479   -1.1087   -1.5420 H   0  0  0  0  0  0  0  0  0  0  0  0
   -3.9590    0.8258   -0.9715 H   0  0  0  0  0  0  0  0  0  0  0  0
   -3.6873    0.7990    0.7725 H   0  0  0  0  0  0  0  0  0  0  0  0
    1.0957    1.0699   -1.6596 H   0  0  0  0  0  0  0  0  0  0  0  0
   -4.8011   -1.4350    0.9196 H   0  0  0  0  0  0  0  0  0  0  0  0
   -5.0563   -1.4254   -0.8227 H   0  0  0  0  0  0  0  0  0  0  0  0
   -6.2481    0.5709    1.1638 H   0  0  0  0  0  0  0  0  0  0  0  0
   -6.4648    0.6474   -0.5821 H   0  0  0  0  0  0  0  0  0  0  0  0
    3.3880    0.3817   -0.9523 H   0  0  0  0  0  0  0  0  0  0  0  0
    2.5272   -0.9241   -1.8117 H   0  0  0  0  0  0  0  0  0  0  0  0
   -7.6142   -1.5681   -0.5510 H   0  0  0  0  0  0  0  0  0  0  0  0
   -8.4222   -0.3912    0.5001 H   0  0  0  0  0  0  0  0  0  0  0  0
   -7.3969   -1.6524    1.2080 H   0  0  0  0  0  0  0  0  0  0  0  0
    0.8090    3.3723    1.8855 H   0  0  0  0  0  0  0  0  0  0  0  0
    2.2610    4.2552    1.3710 H   0  0  0  0  0  0  0  0  0  0  0  0
    2.4454    2.7258    2.2542 H   0  0  0  0  0  0  0  0  0  0  0  0
    3.9714   -2.1149    2.3404 H   0  0  0  0  0  0  0  0  0  0  0  0
    4.8732   -3.3517    1.4400 H   0  0  0  0  0  0  0  0  0  0  0  0
    3.1004   -3.4371    1.4894 H   0  0  0  0  0  0  0  0  0  0  0  0
  1  9  1  0  0  0  0
  1 14  1  0  0  0  0
  2 12  1  0  0  0  0
  2 15  1  0  0  0  0
  3 14  2  0  0  0  0
  4 15  2  0  0  0  0
  5  6  1  0  0  0  0
  5  7  1  0  0  0  0
  5 18  1  0  0  0  0
  5 19  1  0  0  0  0
  6  8  1  0  0  0  0
  6 20  1  0  0  0  0
  6 21  1  0  0  0  0
  7  9  1  0  0  0  0
  7 22  1  0  0  0  0
  7 23  1  0  0  0  0
  8 10  1  0  0  0  0
  8 24  1  0  0  0  0
  8 25  1  0  0  0  0
  9 12  1  0  0  0  0
  9 26  1  0  0  0  0
 10 11  1  0  0  0  0
 10 27  1  0  0  0  0
 10 28  1  0  0  0  0
 11 13  1  0  0  0  0
 11 29  1  0  0  0  0
 11 30  1  0  0  0  0
 12 31  1  0  0  0  0
 12 32  1  0  0  0  0
 13 33  1  0  0  0  0
 13 34  1  0  0  0  0
 13 35  1  0  0  0  0
 14 16  1  0  0  0  0
 15 17  1  0  0  0  0
 16 36  1  0  0  0  0
 16 37  1  0  0  0  0
 16 38  1  0  0  0  0
 17 39  1  0  0  0  0
 17 40  1  0  0  0  0
 17 41  1  0  0  0  0
M  END
> <PUBCHEM_COMPOUND_CID>
163261

> <PUBCHEM_CONFORMER_RMSD>
1.2

> <PUBCHEM_CONFORMER_DIVERSEORDER>
1
59
48
32
53
30
76
15
25
13
27
39
34
49
40
64
77
3
20
28
16
18
54
29
67
4
55
10
71
45
69
63
14
73
74
21
70
57
6
12
52
50
68
2
37
43
24
60
62
75
58
19
42
26
11
5
47
31
22
66
65
61
17
41
46
51
23
8
38
35
56
9
36
7
44
72
33

> <PUBCHEM_MMFF94_PARTIAL_CHARGES>
10
1 -0.43
12 0.28
14 0.66
15 0.66
16 0.06
17 0.06
2 -0.43
3 -0.57
4 -0.57
9 0.28

> <PUBCHEM_EFFECTIVE_ROTOR_COUNT>
11

> <PUBCHEM_PHARMACOPHORE_FEATURES>
5
1 13 hydrophobe
1 3 acceptor
1 4 acceptor
3 5 6 7 hydrophobe
3 8 10 11 hydrophobe

> <PUBCHEM_HEAVY_ATOM_COUNT>
17

> <PUBCHEM_ATOM_DEF_STEREO_COUNT>
0

> <PUBCHEM_ATOM_UDEF_STEREO_COUNT>
1

> <PUBCHEM_BOND_DEF_STEREO_COUNT>
0

> <PUBCHEM_BOND_UDEF_STEREO_COUNT>
0

> <PUBCHEM_ISOTOPIC_ATOM_COUNT>
0

> <PUBCHEM_COMPONENT_COUNT>
1

> <PUBCHEM_CACTVS_TAUTO_COUNT>
1

> <PUBCHEM_CONFORMER_ID>
00027DBD00000001

> <PUBCHEM_MMFF94_ENERGY>
11.3685

> <PUBCHEM_FEATURE_SELFOVERLAP>
25.383

> <PUBCHEM_SHAPE_FINGERPRINT>
10912923 1 17846223315111563551
11405975 8 18340488958699191779
12616971 3 17917425450369183839
13052359 8 17616243689887820348
13533116 47 18409450315050144563
13955234 65 18336828718101205089
14170010 4 18412261765834137128
17980427 23 16772928416006184740
20369508 70 18410292505901119254
20645477 70 18412831308752203735
20832881 197 18260827038700107083
21041028 32 18201153252573693372
21304303 94 13695865883396731824
21344244 78 17988634186226874297
23081809 10 17917434272516884983
23503953 91 17489303114266782599
23559900 14 18041002890371477231
3286 77 18408604742999825765
3421961 26 18408318891103196145
465052 167 18409735040911514167
5104073 3 18272097153882510259
77188 2 18338797802415252532
81228 2 17766561253489529028
9841814 1 18342460339628330398

> <PUBCHEM_SHAPE_MULTIPOLES>
326.37
14.1
3.23
1.09
31.13
2.27
-0.26
-9.2
-2.63
-6.61
-1.36
-1.05
0.13
-0.26

> <PUBCHEM_SHAPE_SELFOVERLAP>
609.289

> <PUBCHEM_SHAPE_VOLUME>
203.4

> <PUBCHEM_COORDINATE_TYPE>
2
5
10

$$$$
