163400
  -OEChem-11232109483D

 44 43  0     1  0  0  0  0  0999 V2000
   -0.8224   -0.5218    1.0158 O   0  0  0  0  0  0  0  0  0  0  0  0
   -2.6851   -0.5018   -0.4351 O   0  0  0  0  0  0  0  0  0  0  0  0
   -0.4715    0.8310    0.7124 C   0  0  2  0  0  0  0  0  0  0  0  0
    1.0512    0.9782    0.9292 C   0  0  0  0  0  0  0  0  0  0  0  0
    1.9088    0.1554   -0.0463 C   0  0  0  0  0  0  0  0  0  0  0  0
    3.4020    0.4209    0.1765 C   0  0  0  0  0  0  0  0  0  0  0  0
    4.3174   -0.4290   -0.7243 C   0  0  0  0  0  0  0  0  0  0  0  0
   -1.2188    1.7358    1.7010 C   0  0  0  0  0  0  0  0  0  0  0  0
   -0.8651    1.2049   -0.7020 C   0  0  0  0  0  0  0  0  0  0  0  0
    4.0282   -1.9156   -0.5021 C   0  0  0  0  0  0  0  0  0  0  0  0
    5.8010   -0.1503   -0.4796 C   0  0  0  0  0  0  0  0  0  0  0  0
   -2.2296   -0.7486    0.8974 C   0  0  1  0  0  0  0  0  0  0  0  0
   -2.4608   -2.2138    1.2447 C   0  0  0  0  0  0  0  0  0  0  0  0
   -1.2334    2.4167   -1.1359 C   0  0  0  0  0  0  0  0  0  0  0  0
   -4.0688   -0.7761   -0.6083 C   0  0  0  0  0  0  0  0  0  0  0  0
   -4.4532   -0.4857   -2.0434 C   0  0  0  0  0  0  0  0  0  0  0  0
    1.3362    2.0351    0.8409 H   0  0  0  0  0  0  0  0  0  0  0  0
    1.2999    0.6633    1.9516 H   0  0  0  0  0  0  0  0  0  0  0  0
    1.6653    0.4007   -1.0853 H   0  0  0  0  0  0  0  0  0  0  0  0
    1.6710   -0.9012    0.1081 H   0  0  0  0  0  0  0  0  0  0  0  0
    3.6505    0.2309    1.2288 H   0  0  0  0  0  0  0  0  0  0  0  0
    3.6098    1.4827   -0.0063 H   0  0  0  0  0  0  0  0  0  0  0  0
    4.0995   -0.1894   -1.7728 H   0  0  0  0  0  0  0  0  0  0  0  0
   -1.1713    1.3239    2.7168 H   0  0  0  0  0  0  0  0  0  0  0  0
   -2.2799    1.8715    1.4610 H   0  0  0  0  0  0  0  0  0  0  0  0
   -0.7777    2.7394    1.7426 H   0  0  0  0  0  0  0  0  0  0  0  0
   -0.7249    0.4404   -1.4660 H   0  0  0  0  0  0  0  0  0  0  0  0
    4.7664   -2.5339   -1.0255 H   0  0  0  0  0  0  0  0  0  0  0  0
    3.0498   -2.2033   -0.8980 H   0  0  0  0  0  0  0  0  0  0  0  0
    4.0670   -2.1789    0.5603 H   0  0  0  0  0  0  0  0  0  0  0  0
    6.0266    0.9078   -0.6485 H   0  0  0  0  0  0  0  0  0  0  0  0
    6.0862   -0.3972    0.5487 H   0  0  0  0  0  0  0  0  0  0  0  0
    6.4275   -0.7390   -1.1578 H   0  0  0  0  0  0  0  0  0  0  0  0
   -2.7936   -0.1489    1.6187 H   0  0  0  0  0  0  0  0  0  0  0  0
   -1.9047   -2.4875    2.1485 H   0  0  0  0  0  0  0  0  0  0  0  0
   -3.5150   -2.4376    1.4318 H   0  0  0  0  0  0  0  0  0  0  0  0
   -2.1127   -2.8681    0.4374 H   0  0  0  0  0  0  0  0  0  0  0  0
   -1.4370    2.5748   -2.1901 H   0  0  0  0  0  0  0  0  0  0  0  0
   -1.3343    3.2715   -0.4788 H   0  0  0  0  0  0  0  0  0  0  0  0
   -4.6588   -0.1516    0.0712 H   0  0  0  0  0  0  0  0  0  0  0  0
   -4.2951   -1.8291   -0.4215 H   0  0  0  0  0  0  0  0  0  0  0  0
   -5.5150   -0.6850   -2.2129 H   0  0  0  0  0  0  0  0  0  0  0  0
   -4.2463    0.5603   -2.2929 H   0  0  0  0  0  0  0  0  0  0  0  0
   -3.8636   -1.0992   -2.7327 H   0  0  0  0  0  0  0  0  0  0  0  0
  1  3  1  0  0  0  0
  1 12  1  0  0  0  0
  2 12  1  0  0  0  0
  2 15  1  0  0  0  0
  3  4  1  0  0  0  0
  3  8  1  0  0  0  0
  3  9  1  0  0  0  0
  4  5  1  0  0  0  0
  4 17  1  0  0  0  0
  4 18  1  0  0  0  0
  5  6  1  0  0  0  0
  5 19  1  0  0  0  0
  5 20  1  0  0  0  0
  6  7  1  0  0  0  0
  6 21  1  0  0  0  0
  6 22  1  0  0  0  0
  7 10  1  0  0  0  0
  7 11  1  0  0  0  0
  7 23  1  0  0  0  0
  8 24  1  0  0  0  0
  8 25  1  0  0  0  0
  8 26  1  0  0  0  0
  9 14  2  0  0  0  0
  9 27  1  0  0  0  0
 10 28  1  0  0  0  0
 10 29  1  0  0  0  0
 10 30  1  0  0  0  0
 11 31  1  0  0  0  0
 11 32  1  0  0  0  0
 11 33  1  0  0  0  0
 12 13  1  0  0  0  0
 12 34  1  0  0  0  0
 13 35  1  0  0  0  0
 13 36  1  0  0  0  0
 13 37  1  0  0  0  0
 14 38  1  0  0  0  0
 14 39  1  0  0  0  0
 15 16  1  0  0  0  0
 15 40  1  0  0  0  0
 15 41  1  0  0  0  0
 16 42  1  0  0  0  0
 16 43  1  0  0  0  0
 16 44  1  0  0  0  0
M  END
> <PUBCHEM_COMPOUND_CID>
163400

> <PUBCHEM_CONFORMER_RMSD>
0.8

> <PUBCHEM_CONFORMER_DIVERSEORDER>
5
65
47
40
54
36
25
31
42
27
8
58
51
39
35
61
6
23
17
63
28
22
50
24
37
30
43
13
46
16
48
55
52
12
15
44
56
62
59
21
10
7
26
33
11
19
29
49
4
60
14
64
18
34
3
53
20
41
2
45
32
38
1
57
9

> <PUBCHEM_MMFF94_PARTIAL_CHARGES>
10
1 -0.56
12 0.56
14 -0.3
15 0.28
2 -0.56
27 0.15
3 0.42
38 0.15
39 0.15
9 -0.29

> <PUBCHEM_EFFECTIVE_ROTOR_COUNT>
9

> <PUBCHEM_PHARMACOPHORE_FEATURES>
5
1 1 acceptor
1 14 hydrophobe
1 2 acceptor
3 7 10 11 hydrophobe
4 4 5 6 7 hydrophobe

> <PUBCHEM_HEAVY_ATOM_COUNT>
16

> <PUBCHEM_ATOM_DEF_STEREO_COUNT>
0

> <PUBCHEM_ATOM_UDEF_STEREO_COUNT>
2

> <PUBCHEM_BOND_DEF_STEREO_COUNT>
0

> <PUBCHEM_BOND_UDEF_STEREO_COUNT>
0

> <PUBCHEM_ISOTOPIC_ATOM_COUNT>
0

> <PUBCHEM_COMPONENT_COUNT>
1

> <PUBCHEM_CACTVS_TAUTO_COUNT>
1

> <PUBCHEM_CONFORMER_ID>
00027E4800000005

> <PUBCHEM_MMFF94_ENERGY>
39.5207

> <PUBCHEM_FEATURE_SELFOVERLAP>
25.439

> <PUBCHEM_SHAPE_FINGERPRINT>
10610426 29 16917059006050814449
10803635 8 17749104513101509498
11127187 94 17968099754422036523
12251169 10 12463568487181604808
12596602 18 15267057073450718214
12892183 10 12966861125649300772
12930653 34 12247142813277949543
14123260 362 14057004901450713318
14178342 30 13253702874903744139
15880784 105 16559033805190613066
17959699 21 15936411177933227980
200 152 18202563977604921494
20645477 70 18270394030875094002
20871999 31 18261106340165039476
21069387 34 17488740237359420983
22620623 9 18339061715107231581
23402539 116 18260829263187315133
23526113 38 18196920283483591217
23557571 272 17678734767974795960
23559900 14 18261390113582281896
24859131 72 15410900682106573237
27216 239 8213847168190100732
2871803 45 18408605842801843894
4259306 186 18343584036301638766
58051976 378 18260551126191269654
76465 3 17274814796582361519

> <PUBCHEM_SHAPE_MULTIPOLES>
317.53
9.8
2.08
1.57
10.55
0.16
-0.1
-4.88
-4.69
-0.92
0.2
-1.8
0.14
0.54

> <PUBCHEM_SHAPE_SELFOVERLAP>
593.504

> <PUBCHEM_SHAPE_VOLUME>
199.2

> <PUBCHEM_COORDINATE_TYPE>
2
5
10

$$$$
