163418
  -OEChem-11232109173D

 35 36  0     1  0  0  0  0  0999 V2000
    0.9160   -1.3837   -1.2460 O   0  0  0  0  0  0  0  0  0  0  0  0
   -1.1575   -0.6682   -0.0599 C   0  0  2  0  0  0  0  0  0  0  0  0
    0.5644    0.9358   -0.3998 C   0  0  1  0  0  0  0  0  0  0  0  0
    0.3928   -0.5962   -0.1807 C   0  0  0  0  0  0  0  0  0  0  0  0
   -1.6240    0.1990   -1.2532 C   0  0  0  0  0  0  0  0  0  0  0  0
   -0.5094    1.2382   -1.4730 C   0  0  0  0  0  0  0  0  0  0  0  0
   -1.6142   -0.0213    1.2786 C   0  0  0  0  0  0  0  0  0  0  0  0
    0.2341    1.6971    0.9147 C   0  0  0  0  0  0  0  0  0  0  0  0
   -1.1809    1.4365    1.4294 C   0  0  0  0  0  0  0  0  0  0  0  0
    1.1269   -1.1189    1.0699 C   0  0  0  0  0  0  0  0  0  0  0  0
   -1.7348   -2.0852   -0.1275 C   0  0  0  0  0  0  0  0  0  0  0  0
    1.9622    1.3606   -0.8598 C   0  0  0  0  0  0  0  0  0  0  0  0
    2.6242   -0.9938    0.9074 C   0  0  0  0  0  0  0  0  0  0  0  0
   -2.5928    0.6770   -1.0723 H   0  0  0  0  0  0  0  0  0  0  0  0
   -1.7297   -0.4064   -2.1620 H   0  0  0  0  0  0  0  0  0  0  0  0
   -0.0995    1.1119   -2.4829 H   0  0  0  0  0  0  0  0  0  0  0  0
   -0.8923    2.2624   -1.4080 H   0  0  0  0  0  0  0  0  0  0  0  0
   -1.2642   -0.6061    2.1367 H   0  0  0  0  0  0  0  0  0  0  0  0
   -2.7104   -0.0536    1.3444 H   0  0  0  0  0  0  0  0  0  0  0  0
    0.3379    2.7778    0.7468 H   0  0  0  0  0  0  0  0  0  0  0  0
    0.9613    1.4626    1.6999 H   0  0  0  0  0  0  0  0  0  0  0  0
   -1.8834    2.0759    0.8801 H   0  0  0  0  0  0  0  0  0  0  0  0
   -1.2603    1.7440    2.4786 H   0  0  0  0  0  0  0  0  0  0  0  0
    0.9029   -2.1888    1.1750 H   0  0  0  0  0  0  0  0  0  0  0  0
    0.8337   -0.6567    2.0144 H   0  0  0  0  0  0  0  0  0  0  0  0
   -1.3996   -2.6959    0.7170 H   0  0  0  0  0  0  0  0  0  0  0  0
   -2.8302   -2.0625   -0.1094 H   0  0  0  0  0  0  0  0  0  0  0  0
   -1.4336   -2.5959   -1.0483 H   0  0  0  0  0  0  0  0  0  0  0  0
    2.3463    0.7852   -1.7046 H   0  0  0  0  0  0  0  0  0  0  0  0
    1.9138    2.3984   -1.2176 H   0  0  0  0  0  0  0  0  0  0  0  0
    2.7092    1.3790   -0.0679 H   0  0  0  0  0  0  0  0  0  0  0  0
    1.7358   -1.0070   -1.5928 H   0  0  0  0  0  0  0  0  0  0  0  0
    3.0223   -1.1726   -0.0921 H   0  0  0  0  0  0  0  0  0  0  0  0
    2.9892   -0.0385    1.2903 H   0  0  0  0  0  0  0  0  0  0  0  0
    3.1020   -1.7427    1.5528 H   0  0  0  0  0  0  0  0  0  0  0  0
  1  4  1  0  0  0  0
  1 32  1  0  0  0  0
  2  4  1  0  0  0  0
  2  5  1  0  0  0  0
  2  7  1  0  0  0  0
  2 11  1  0  0  0  0
  3  4  1  0  0  0  0
  3  6  1  0  0  0  0
  3  8  1  0  0  0  0
  3 12  1  0  0  0  0
  4 10  1  0  0  0  0
  5  6  1  0  0  0  0
  5 14  1  0  0  0  0
  5 15  1  0  0  0  0
  6 16  1  0  0  0  0
  6 17  1  0  0  0  0
  7  9  1  0  0  0  0
  7 18  1  0  0  0  0
  7 19  1  0  0  0  0
  8  9  1  0  0  0  0
  8 20  1  0  0  0  0
  8 21  1  0  0  0  0
  9 22  1  0  0  0  0
  9 23  1  0  0  0  0
 10 13  1  0  0  0  0
 10 24  1  0  0  0  0
 10 25  1  0  0  0  0
 11 26  1  0  0  0  0
 11 27  1  0  0  0  0
 11 28  1  0  0  0  0
 12 29  1  0  0  0  0
 12 30  1  0  0  0  0
 12 31  1  0  0  0  0
 13 33  1  0  0  0  0
 13 34  1  0  0  0  0
 13 35  1  0  0  0  0
M  END
> <PUBCHEM_COMPOUND_CID>
163418

> <PUBCHEM_CONFORMER_RMSD>
0.6

> <PUBCHEM_CONFORMER_DIVERSEORDER>
1
2

> <PUBCHEM_MMFF94_PARTIAL_CHARGES>
3
1 -0.68
32 0.4
4 0.28

> <PUBCHEM_EFFECTIVE_ROTOR_COUNT>
2.2

> <PUBCHEM_PHARMACOPHORE_FEATURES>
4
1 1 acceptor
1 1 donor
1 13 hydrophobe
8 2 3 4 5 6 7 8 9 rings

> <PUBCHEM_HEAVY_ATOM_COUNT>
13

> <PUBCHEM_ATOM_DEF_STEREO_COUNT>
0

> <PUBCHEM_ATOM_UDEF_STEREO_COUNT>
2

> <PUBCHEM_BOND_DEF_STEREO_COUNT>
0

> <PUBCHEM_BOND_UDEF_STEREO_COUNT>
0

> <PUBCHEM_ISOTOPIC_ATOM_COUNT>
0

> <PUBCHEM_COMPONENT_COUNT>
1

> <PUBCHEM_CACTVS_TAUTO_COUNT>
1

> <PUBCHEM_CONFORMER_ID>
00027E5A00000001

> <PUBCHEM_MMFF94_ENERGY>
61.0744

> <PUBCHEM_FEATURE_SELFOVERLAP>
20.297

> <PUBCHEM_SHAPE_FINGERPRINT>
10702982 57 18055668085741244429
12423570 1 16265212201588796461
13024252 1 15287334086232082930
137420 1 14805270895303198935
14128692 85 18261939856046920834
144361 1 18189034499767718816
14817 1 15871426484192958617
15557651 10 17475788127311405253
16945 1 17827601860595496836
21922407 69 18270696344974959747
22344851 12 10424106032265749902
23419403 2 16757674835116932000
241688 4 17114090067650004662
2748010 2 17896584245196398022
369184 2 17534611625861880210
5084963 1 17686628247860099021
528886 8 17486522500292868420
54276843 12 17324141013944165941
68250623 7 17823117047228977701

> <PUBCHEM_SHAPE_MULTIPOLES>
261.66
2.53
2.03
1.57
0.85
0.18
-0.11
0.77
-0.17
0.09
-0.04
-0.26
-0.4
-0.45

> <PUBCHEM_SHAPE_SELFOVERLAP>
544.275

> <PUBCHEM_SHAPE_VOLUME>
150.7

> <PUBCHEM_COORDINATE_TYPE>
2
5
10

$$$$
