163546
  -OEChem-11232109043D

 31 33  0     1  0  0  0  0  0999 V2000
   -1.8465    1.2145    0.1862 O   0  0  0  0  0  0  0  0  0  0  0  0
   -2.0457   -1.1369    0.0221 O   0  0  0  0  0  0  0  0  0  0  0  0
    0.1612   -0.1099   -0.2666 C   0  0  0  0  0  0  0  0  0  0  0  0
    1.5144   -0.2264   -1.0336 C   0  0  2  0  0  0  0  0  0  0  0  0
    2.1492   -0.4276    1.0919 C   0  0  1  0  0  0  0  0  0  0  0  0
    0.6201   -0.2634    1.2140 C   0  0  0  0  0  0  0  0  0  0  0  0
    2.2819   -1.2510   -0.1871 C   0  0  0  0  0  0  0  0  0  0  0  0
    2.3997    1.0152   -0.8170 C   0  0  0  0  0  0  0  0  0  0  0  0
    2.7698    0.9162    0.6699 C   0  0  0  0  0  0  0  0  0  0  0  0
   -0.5842    1.2200   -0.4837 C   0  0  0  0  0  0  0  0  0  0  0  0
   -0.7981   -1.2560   -0.6619 C   0  0  0  0  0  0  0  0  0  0  0  0
   -2.6553    0.1237   -0.2496 C   0  0  0  0  0  0  0  0  0  0  0  0
   -3.9665    0.1816    0.5153 C   0  0  0  0  0  0  0  0  0  0  0  0
    1.4058   -0.4946   -2.0873 H   0  0  0  0  0  0  0  0  0  0  0  0
    2.6109   -0.8602    1.9818 H   0  0  0  0  0  0  0  0  0  0  0  0
    0.1882   -1.1574    1.6789 H   0  0  0  0  0  0  0  0  0  0  0  0
    0.3591    0.5969    1.8395 H   0  0  0  0  0  0  0  0  0  0  0  0
    3.3214   -1.3832   -0.5074 H   0  0  0  0  0  0  0  0  0  0  0  0
    1.8034   -2.2319   -0.1231 H   0  0  0  0  0  0  0  0  0  0  0  0
    1.9163    1.9611   -1.0716 H   0  0  0  0  0  0  0  0  0  0  0  0
    3.3075    0.9436   -1.4289 H   0  0  0  0  0  0  0  0  0  0  0  0
    3.8592    0.8991    0.7855 H   0  0  0  0  0  0  0  0  0  0  0  0
    2.3778    1.7580    1.2493 H   0  0  0  0  0  0  0  0  0  0  0  0
   -0.0272    2.0701   -0.0795 H   0  0  0  0  0  0  0  0  0  0  0  0
   -0.7472    1.4114   -1.5514 H   0  0  0  0  0  0  0  0  0  0  0  0
   -0.9859   -1.2534   -1.7430 H   0  0  0  0  0  0  0  0  0  0  0  0
   -0.3886   -2.2393   -0.4125 H   0  0  0  0  0  0  0  0  0  0  0  0
   -2.8633    0.2168   -1.3236 H   0  0  0  0  0  0  0  0  0  0  0  0
   -4.6277   -0.6401    0.2226 H   0  0  0  0  0  0  0  0  0  0  0  0
   -3.7884    0.0911    1.5930 H   0  0  0  0  0  0  0  0  0  0  0  0
   -4.4771    1.1349    0.3467 H   0  0  0  0  0  0  0  0  0  0  0  0
  1 10  1  0  0  0  0
  1 12  1  0  0  0  0
  2 11  1  0  0  0  0
  2 12  1  0  0  0  0
  3  4  1  0  0  0  0
  3  6  1  0  0  0  0
  3 10  1  0  0  0  0
  3 11  1  0  0  0  0
  4  7  1  0  0  0  0
  4  8  1  0  0  0  0
  4 14  1  0  0  0  0
  5  6  1  0  0  0  0
  5  7  1  0  0  0  0
  5  9  1  0  0  0  0
  5 15  1  0  0  0  0
  6 16  1  0  0  0  0
  6 17  1  0  0  0  0
  7 18  1  0  0  0  0
  7 19  1  0  0  0  0
  8  9  1  0  0  0  0
  8 20  1  0  0  0  0
  8 21  1  0  0  0  0
  9 22  1  0  0  0  0
  9 23  1  0  0  0  0
 10 24  1  0  0  0  0
 10 25  1  0  0  0  0
 11 26  1  0  0  0  0
 11 27  1  0  0  0  0
 12 13  1  0  0  0  0
 12 28  1  0  0  0  0
 13 29  1  0  0  0  0
 13 30  1  0  0  0  0
 13 31  1  0  0  0  0
M  END
> <PUBCHEM_COMPOUND_CID>
163546

> <PUBCHEM_CONFORMER_RMSD>
0.6

> <PUBCHEM_CONFORMER_DIVERSEORDER>
1
3
2
4

> <PUBCHEM_MMFF94_PARTIAL_CHARGES>
5
1 -0.56
10 0.28
11 0.28
12 0.56
2 -0.56

> <PUBCHEM_EFFECTIVE_ROTOR_COUNT>
1.8

> <PUBCHEM_PHARMACOPHORE_FEATURES>
4
1 1 acceptor
1 2 acceptor
6 1 2 3 10 11 12 rings
7 3 4 5 6 7 8 9 rings

> <PUBCHEM_HEAVY_ATOM_COUNT>
13

> <PUBCHEM_ATOM_DEF_STEREO_COUNT>
0

> <PUBCHEM_ATOM_UDEF_STEREO_COUNT>
2

> <PUBCHEM_BOND_DEF_STEREO_COUNT>
0

> <PUBCHEM_BOND_UDEF_STEREO_COUNT>
0

> <PUBCHEM_ISOTOPIC_ATOM_COUNT>
0

> <PUBCHEM_COMPONENT_COUNT>
1

> <PUBCHEM_CACTVS_TAUTO_COUNT>
1

> <PUBCHEM_CONFORMER_ID>
00027EDA00000001

> <PUBCHEM_MMFF94_ENERGY>
49.0112

> <PUBCHEM_FEATURE_SELFOVERLAP>
20.336

> <PUBCHEM_SHAPE_FINGERPRINT>
10219947 1 18411703171214664453
11031198 65 16343985822917857236
12423570 1 13445938605753866284
12491281 212 18341066171500414497
12932764 1 17313101938792279959
13296908 3 17894911806754169037
13380536 243 12895077335634392704
13538477 17 18187364371733364111
13581323 91 18411694366083464138
15775835 57 18412545431011910864
16945 1 18411978100239339844
18186145 218 17060063614320848929
20559304 39 18261111846460448324
21501502 16 17846202401950643334
23402539 116 18058996324707952061
2748010 2 18193833743447934317
3248919 1 18411692197219957767
369184 2 17530955895548921877
5084963 1 18338518512869571942
528886 8 18341053003278183070
5337951 7 16988846076935874782
57812782 119 11674871221339622033
7364860 26 18342738486301006662

> <PUBCHEM_SHAPE_MULTIPOLES>
255.8
5.03
1.31
1.08
3.66
0
0.11
-0.53
0.75
-0.19
-0.15
-0.48
0.03
-0.12

> <PUBCHEM_SHAPE_SELFOVERLAP>
546.795

> <PUBCHEM_SHAPE_VOLUME>
146.1

> <PUBCHEM_COORDINATE_TYPE>
2
5
10

$$$$
