163617
  -OEChem-11232109143D

 31 33  0     1  0  0  0  0  0999 V2000
   -2.1562   -1.0987    0.1722 O   0  0  0  0  0  0  0  0  0  0  0  0
   -0.5583    0.7739    0.0901 C   0  0  2  0  0  0  0  0  0  0  0  0
    0.6040    0.5782   -0.9092 C   0  0  2  0  0  0  0  0  0  0  0  0
    0.2064   -1.5105   -0.2037 C   0  0  1  0  0  0  0  0  0  0  0  0
   -0.8503   -0.6758    0.5594 C   0  0  2  0  0  0  0  0  0  0  0  0
    0.2771   -0.7743   -1.5476 C   0  0  0  0  0  0  0  0  0  0  0  0
    1.6092   -1.2345    0.3729 C   0  0  0  0  0  0  0  0  0  0  0  0
    1.8228    0.1829   -0.1001 C   0  0  0  0  0  0  0  0  0  0  0  0
   -1.7893    1.4341   -0.5292 C   0  0  0  0  0  0  0  0  0  0  0  0
   -3.0023    1.2000    0.3607 C   0  0  0  0  0  0  0  0  0  0  0  0
   -3.1744   -0.2727    0.7338 C   0  0  0  0  0  0  0  0  0  0  0  0
    2.9077    0.9306    0.1183 C   0  0  0  0  0  0  0  0  0  0  0  0
    4.1034    0.4669    0.8824 C   0  0  0  0  0  0  0  0  0  0  0  0
   -0.2271    1.3771    0.9464 H   0  0  0  0  0  0  0  0  0  0  0  0
    0.7623    1.4001   -1.6103 H   0  0  0  0  0  0  0  0  0  0  0  0
   -0.0417   -2.5712   -0.2876 H   0  0  0  0  0  0  0  0  0  0  0  0
   -0.7413   -0.7900    1.6446 H   0  0  0  0  0  0  0  0  0  0  0  0
   -0.6697   -0.7852   -2.0963 H   0  0  0  0  0  0  0  0  0  0  0  0
    1.0709   -1.1528   -2.2024 H   0  0  0  0  0  0  0  0  0  0  0  0
    2.3461   -1.9095   -0.0754 H   0  0  0  0  0  0  0  0  0  0  0  0
    1.6261   -1.3259    1.4629 H   0  0  0  0  0  0  0  0  0  0  0  0
   -1.9936    1.0290   -1.5275 H   0  0  0  0  0  0  0  0  0  0  0  0
   -1.6153    2.5082   -0.6595 H   0  0  0  0  0  0  0  0  0  0  0  0
   -2.9058    1.7900    1.2809 H   0  0  0  0  0  0  0  0  0  0  0  0
   -3.9088    1.5687   -0.1333 H   0  0  0  0  0  0  0  0  0  0  0  0
   -3.1848   -0.4005    1.8227 H   0  0  0  0  0  0  0  0  0  0  0  0
   -4.1363   -0.6403    0.3612 H   0  0  0  0  0  0  0  0  0  0  0  0
    2.9483    1.9368   -0.2900 H   0  0  0  0  0  0  0  0  0  0  0  0
    4.9891    0.5078    0.2407 H   0  0  0  0  0  0  0  0  0  0  0  0
    4.0110   -0.5542    1.2620 H   0  0  0  0  0  0  0  0  0  0  0  0
    4.2728    1.1287    1.7377 H   0  0  0  0  0  0  0  0  0  0  0  0
  1  5  1  0  0  0  0
  1 11  1  0  0  0  0
  2  3  1  0  0  0  0
  2  5  1  0  0  0  0
  2  9  1  0  0  0  0
  2 14  1  0  0  0  0
  3  6  1  0  0  0  0
  3  8  1  0  0  0  0
  3 15  1  0  0  0  0
  4  5  1  0  0  0  0
  4  6  1  0  0  0  0
  4  7  1  0  0  0  0
  4 16  1  0  0  0  0
  5 17  1  0  0  0  0
  6 18  1  0  0  0  0
  6 19  1  0  0  0  0
  7  8  1  0  0  0  0
  7 20  1  0  0  0  0
  7 21  1  0  0  0  0
  8 12  2  3  0  0  0
  9 10  1  0  0  0  0
  9 22  1  0  0  0  0
  9 23  1  0  0  0  0
 10 11  1  0  0  0  0
 10 24  1  0  0  0  0
 10 25  1  0  0  0  0
 11 26  1  0  0  0  0
 11 27  1  0  0  0  0
 12 13  1  0  0  0  0
 12 28  1  0  0  0  0
 13 29  1  0  0  0  0
 13 30  1  0  0  0  0
 13 31  1  0  0  0  0
M  END
> <PUBCHEM_COMPOUND_CID>
163617

> <PUBCHEM_CONFORMER_RMSD>
0.4

> <PUBCHEM_CONFORMER_DIVERSEORDER>
1

> <PUBCHEM_MMFF94_PARTIAL_CHARGES>
9
1 -0.56
11 0.28
12 -0.29
13 0.14
28 0.15
3 0.14
5 0.28
7 0.14
8 -0.28

> <PUBCHEM_EFFECTIVE_ROTOR_COUNT>
1.2

> <PUBCHEM_PHARMACOPHORE_FEATURES>
4
1 1 acceptor
1 13 hydrophobe
6 1 2 5 9 10 11 rings
7 2 3 4 5 6 7 8 rings

> <PUBCHEM_HEAVY_ATOM_COUNT>
13

> <PUBCHEM_ATOM_DEF_STEREO_COUNT>
0

> <PUBCHEM_ATOM_UDEF_STEREO_COUNT>
0

> <PUBCHEM_BOND_DEF_STEREO_COUNT>
0

> <PUBCHEM_BOND_UDEF_STEREO_COUNT>
1

> <PUBCHEM_ISOTOPIC_ATOM_COUNT>
0

> <PUBCHEM_COMPONENT_COUNT>
1

> <PUBCHEM_CACTVS_TAUTO_COUNT>
1

> <PUBCHEM_CONFORMER_ID>
00027F2100000001

> <PUBCHEM_MMFF94_ENERGY>
41.4971

> <PUBCHEM_FEATURE_SELFOVERLAP>
20.318

> <PUBCHEM_SHAPE_FINGERPRINT>
10219947 1 16008751337695414202
11132069 177 18412263951713937017
11769659 78 13768505218091442609
12119455 92 17775281655917756372
12251169 10 18113615698942201120
12382932 28 18409174281396305201
12423570 1 8230863137111619070
13024252 1 12108329435642368510
13380535 76 18409446972996038307
13571099 52 18271811181156934397
13581323 91 17894916230206584552
13839132 238 18198633141878782077
14943859 89 16272206405585364282
15219456 202 18271250417326023126
15375462 478 18187364371580149460
15775835 57 18201718461600206600
16945 1 18260835933281776319
17846911 113 18343580745998039337
18186145 218 15769782364092262664
20281407 28 12468352462216237208
20361792 2 14417854739183011058
20525323 117 18411416232823327455
20653085 51 13758066445970154922
20871999 31 11240000036227706521
23402539 116 18339071701043149479
2748010 2 18190188879797893295
369184 2 18335138670145012209
5084963 1 18269573726644631790
53812653 166 18342455941402737808
7364860 26 18198346143574369014

> <PUBCHEM_SHAPE_MULTIPOLES>
261.66
5.2
1.5
1.04
1.79
0.12
0.25
-1.69
-2.03
-0.29
0.06
0.12
0.09
0.23

> <PUBCHEM_SHAPE_SELFOVERLAP>
561.749

> <PUBCHEM_SHAPE_VOLUME>
149.4

> <PUBCHEM_COORDINATE_TYPE>
2
5
10

$$$$
