165224
  -OEChem-11232109193D

 26 25  0     0  0  0  0  0  0999 V2000
   -4.5272    0.5008    0.2953 S   0  0  0  0  0  0  0  0  0  0  0  0
    5.5984   -0.4133   -0.7749 S   0  0  0  0  0  0  0  0  0  0  0  0
    3.0308   -0.2782    0.2486 N   0  0  0  0  0  0  0  0  0  0  0  0
   -1.3329   -0.0179    0.6131 C   0  0  0  0  0  0  0  0  0  0  0  0
    0.0816   -0.0161    0.0271 C   0  0  0  0  0  0  0  0  0  0  0  0
   -2.2272   -1.0359   -0.1026 C   0  0  0  0  0  0  0  0  0  0  0  0
    0.9895    0.9678    0.7710 C   0  0  0  0  0  0  0  0  0  0  0  0
   -3.6551   -1.0867    0.4407 C   0  0  0  0  0  0  0  0  0  0  0  0
    2.3907    1.0363    0.1737 C   0  0  0  0  0  0  0  0  0  0  0  0
   -4.4689    0.6668   -1.5033 C   0  0  0  0  0  0  0  0  0  0  0  0
    4.1202   -0.3236   -0.1888 C   0  0  0  0  0  0  0  0  0  0  0  0
   -1.7427    0.9937    0.5244 H   0  0  0  0  0  0  0  0  0  0  0  0
   -1.2899   -0.2589    1.6822 H   0  0  0  0  0  0  0  0  0  0  0  0
    0.4974   -1.0288    0.0865 H   0  0  0  0  0  0  0  0  0  0  0  0
    0.0377    0.2549   -1.0348 H   0  0  0  0  0  0  0  0  0  0  0  0
   -1.7873   -2.0340    0.0234 H   0  0  0  0  0  0  0  0  0  0  0  0
   -2.2257   -0.8488   -1.1822 H   0  0  0  0  0  0  0  0  0  0  0  0
    1.0564    0.6719    1.8254 H   0  0  0  0  0  0  0  0  0  0  0  0
    0.5448    1.9699    0.7452 H   0  0  0  0  0  0  0  0  0  0  0  0
   -4.2310   -1.8578   -0.0819 H   0  0  0  0  0  0  0  0  0  0  0  0
   -3.6379   -1.3617    1.5007 H   0  0  0  0  0  0  0  0  0  0  0  0
    2.9738    1.7800    0.7334 H   0  0  0  0  0  0  0  0  0  0  0  0
    2.3249    1.3781   -0.8681 H   0  0  0  0  0  0  0  0  0  0  0  0
   -5.1529    1.4651   -1.8048 H   0  0  0  0  0  0  0  0  0  0  0  0
   -4.7869   -0.2573   -1.9931 H   0  0  0  0  0  0  0  0  0  0  0  0
   -3.4662    0.9436   -1.8376 H   0  0  0  0  0  0  0  0  0  0  0  0
  1  8  1  0  0  0  0
  1 10  1  0  0  0  0
  2 11  2  0  0  0  0
  3  9  1  0  0  0  0
  3 11  2  0  0  0  0
  4  5  1  0  0  0  0
  4  6  1  0  0  0  0
  4 12  1  0  0  0  0
  4 13  1  0  0  0  0
  5  7  1  0  0  0  0
  5 14  1  0  0  0  0
  5 15  1  0  0  0  0
  6  8  1  0  0  0  0
  6 16  1  0  0  0  0
  6 17  1  0  0  0  0
  7  9  1  0  0  0  0
  7 18  1  0  0  0  0
  7 19  1  0  0  0  0
  8 20  1  0  0  0  0
  8 21  1  0  0  0  0
  9 22  1  0  0  0  0
  9 23  1  0  0  0  0
 10 24  1  0  0  0  0
 10 25  1  0  0  0  0
 10 26  1  0  0  0  0
M  END
> <PUBCHEM_COMPOUND_CID>
165224

> <PUBCHEM_CONFORMER_RMSD>
0.8

> <PUBCHEM_CONFORMER_DIVERSEORDER>
1
136
193
89
21
81
194
3
25
173
132
59
39
144
197
10
116
93
36
122
195
6
164
27
165
11
131
117
97
109
176
106
34
104
151
178
118
16
126
33
2
87
161
43
152
23
12
60
4
75
80
123
138
149
69
68
105
198
92
50
22
177
115
49
52
199
28
9
77
139
142
99
154
66
86
79
111
76
130
145
137
31
29
183
147
35
167
24
192
91
187
174
54
46
155
185
5
65
48
44
121
196
146
148
67
30
191
47
18
190
166
17
15
112
141
8
38
37
171
180
57
14
175
129
45
13
189
96
70
169
163
20
84
72
182
140
133
88
55
168
172
62
32
119
120
186
85
184
110
127
82
61
42
108
159
19
157
63
64
26
150
41
95
160
153
51
162
156
40
113
94
179
103
143
78
83
135
170
71
100
134
181
98
53
73
56
90
58
102
188
128
101
158
114
7
125
107
124
74

> <PUBCHEM_MMFF94_PARTIAL_CHARGES>
7
1 -0.46
10 0.23
11 0.57
2 -0.27
3 -0.55
8 0.23
9 0.25

> <PUBCHEM_EFFECTIVE_ROTOR_COUNT>
7

> <PUBCHEM_PHARMACOPHORE_FEATURES>
5
1 10 hydrophobe
1 2 acceptor
1 3 acceptor
3 1 6 8 hydrophobe
3 4 5 7 hydrophobe

> <PUBCHEM_HEAVY_ATOM_COUNT>
11

> <PUBCHEM_ATOM_DEF_STEREO_COUNT>
0

> <PUBCHEM_ATOM_UDEF_STEREO_COUNT>
0

> <PUBCHEM_BOND_DEF_STEREO_COUNT>
0

> <PUBCHEM_BOND_UDEF_STEREO_COUNT>
0

> <PUBCHEM_ISOTOPIC_ATOM_COUNT>
0

> <PUBCHEM_COMPONENT_COUNT>
1

> <PUBCHEM_CACTVS_TAUTO_COUNT>
1

> <PUBCHEM_CONFORMER_ID>
0002856800000001

> <PUBCHEM_MMFF94_ENERGY>
6.9037

> <PUBCHEM_FEATURE_SELFOVERLAP>
25.422

> <PUBCHEM_SHAPE_FINGERPRINT>
10680689 15 17676490575085826923
11987891 27 15841549686849311861
124424 183 18131351929610216489
12555020 224 17989483026626304231
12714333 28 17095530621565488964
12815109 37 18273497871075825410
14123238 8 11025799807711862834
1420 363 10447929490028436988
14251731 8 18408042900894687526
14251752 14 17749384815899846518
15242439 84 18410572890103628265
17041 50 18335131029451453361
17834072 33 18201162152193894868
17834072 8 18410853252794611661
17834076 25 18408045104170777247
18186145 218 18260822739448276265
1986462 14 18335702780172321483
200 152 17132113537367701697
20325693 3 17894348891419169775
20621476 66 18129954368896519577
20621476 91 10374998858394693613
20645477 70 18202568405853568182
20767249 13 17489869332442187926
20828058 44 12607405498731217693
20871999 31 18334861572009456284
21119208 17 18410856568303642290
22485316 2 18342455967515289858
22959321 60 8862951584267635919
23218964 4 18411702058512225201
23272321 79 8141789578637323474
23402539 116 16558750092303644369
23402655 69 17749385940669640092
23532345 12 17060345123457020224
23590187 130 18186522090139411157
23590187 198 15482675662621577540
32948 21 18113894931851024748
42788 4 16732986427144546614
49783359 22 13830132780166264636
58051976 100 18337387240423275055
58999712 45 10809347753865699346
59345605 10 10303516326318388709

> <PUBCHEM_SHAPE_MULTIPOLES>
229.09
12.5
1.11
1.02
6.5
0
-0.34
-1.34
-3.71
-0.29
0.08
-0.83
0.11
0.7

> <PUBCHEM_SHAPE_SELFOVERLAP>
394.6

> <PUBCHEM_SHAPE_VOLUME>
153.4

> <PUBCHEM_COORDINATE_TYPE>
2
5
10

$$$$
