166220
  -OEChem-11232108503D

 38 38  0     1  0  0  0  0  0999 V2000
   -4.7710    1.1353    0.8288 O   0  0  0  0  0  0  0  0  0  0  0  0
    0.7659   -0.3236   -0.4017 C   0  0  1  0  0  0  0  0  0  0  0  0
    1.9859    0.6360   -0.2519 C   0  0  0  0  0  0  0  0  0  0  0  0
    1.0009   -1.4431    0.6218 C   0  0  0  0  0  0  0  0  0  0  0  0
   -0.6149    0.3061   -0.2661 C   0  0  0  0  0  0  0  0  0  0  0  0
    3.0405   -0.3355    0.2492 C   0  0  0  0  0  0  0  0  0  0  0  0
    2.4888   -1.4598    0.7274 C   0  0  0  0  0  0  0  0  0  0  0  0
    2.3420    1.2555   -1.6103 C   0  0  0  0  0  0  0  0  0  0  0  0
    1.7693    1.7532    0.7811 C   0  0  0  0  0  0  0  0  0  0  0  0
   -1.7206   -0.7209   -0.5156 C   0  0  0  0  0  0  0  0  0  0  0  0
   -3.1387   -0.1157   -0.4724 C   0  0  2  0  0  0  0  0  0  0  0  0
    4.4966   -0.0219    0.2452 C   0  0  0  0  0  0  0  0  0  0  0  0
   -3.4817    0.5407    0.8715 C   0  0  0  0  0  0  0  0  0  0  0  0
   -4.1629   -1.2065   -0.8070 C   0  0  0  0  0  0  0  0  0  0  0  0
    0.8196   -0.7865   -1.4006 H   0  0  0  0  0  0  0  0  0  0  0  0
    0.6234   -2.4022    0.2538 H   0  0  0  0  0  0  0  0  0  0  0  0
    0.5550   -1.2322    1.5996 H   0  0  0  0  0  0  0  0  0  0  0  0
   -0.7263    0.7279    0.7376 H   0  0  0  0  0  0  0  0  0  0  0  0
   -0.7172    1.1305   -0.9815 H   0  0  0  0  0  0  0  0  0  0  0  0
    3.0428   -2.2759    1.1696 H   0  0  0  0  0  0  0  0  0  0  0  0
    1.5063    1.8442   -2.0046 H   0  0  0  0  0  0  0  0  0  0  0  0
    3.2072    1.9235   -1.5303 H   0  0  0  0  0  0  0  0  0  0  0  0
    2.5881    0.4872   -2.3524 H   0  0  0  0  0  0  0  0  0  0  0  0
    2.6845    2.3378    0.9310 H   0  0  0  0  0  0  0  0  0  0  0  0
    0.9923    2.4534    0.4551 H   0  0  0  0  0  0  0  0  0  0  0  0
    1.4736    1.3538    1.7580 H   0  0  0  0  0  0  0  0  0  0  0  0
   -1.5627   -1.1863   -1.4969 H   0  0  0  0  0  0  0  0  0  0  0  0
   -1.6606   -1.5239    0.2290 H   0  0  0  0  0  0  0  0  0  0  0  0
   -3.2178    0.6492   -1.2563 H   0  0  0  0  0  0  0  0  0  0  0  0
    5.0808   -0.8224    0.7115 H   0  0  0  0  0  0  0  0  0  0  0  0
    4.6958    0.8998    0.7999 H   0  0  0  0  0  0  0  0  0  0  0  0
    4.8622    0.1010   -0.7787 H   0  0  0  0  0  0  0  0  0  0  0  0
   -2.7732    1.3372    1.1134 H   0  0  0  0  0  0  0  0  0  0  0  0
   -3.4649   -0.1969    1.6811 H   0  0  0  0  0  0  0  0  0  0  0  0
   -4.1645   -1.9955   -0.0471 H   0  0  0  0  0  0  0  0  0  0  0  0
   -3.9368   -1.6686   -1.7740 H   0  0  0  0  0  0  0  0  0  0  0  0
   -5.1754   -0.7948   -0.8706 H   0  0  0  0  0  0  0  0  0  0  0  0
   -4.9344    1.5277    1.7034 H   0  0  0  0  0  0  0  0  0  0  0  0
  1 13  1  0  0  0  0
  1 38  1  0  0  0  0
  2  3  1  0  0  0  0
  2  4  1  0  0  0  0
  2  5  1  0  0  0  0
  2 15  1  0  0  0  0
  3  6  1  0  0  0  0
  3  8  1  0  0  0  0
  3  9  1  0  0  0  0
  4  7  1  0  0  0  0
  4 16  1  0  0  0  0
  4 17  1  0  0  0  0
  5 10  1  0  0  0  0
  5 18  1  0  0  0  0
  5 19  1  0  0  0  0
  6  7  2  0  0  0  0
  6 12  1  0  0  0  0
  7 20  1  0  0  0  0
  8 21  1  0  0  0  0
  8 22  1  0  0  0  0
  8 23  1  0  0  0  0
  9 24  1  0  0  0  0
  9 25  1  0  0  0  0
  9 26  1  0  0  0  0
 10 11  1  0  0  0  0
 10 27  1  0  0  0  0
 10 28  1  0  0  0  0
 11 13  1  0  0  0  0
 11 14  1  0  0  0  0
 11 29  1  0  0  0  0
 12 30  1  0  0  0  0
 12 31  1  0  0  0  0
 12 32  1  0  0  0  0
 13 33  1  0  0  0  0
 13 34  1  0  0  0  0
 14 35  1  0  0  0  0
 14 36  1  0  0  0  0
 14 37  1  0  0  0  0
M  END
> <PUBCHEM_COMPOUND_CID>
166220

> <PUBCHEM_CONFORMER_RMSD>
0.6

> <PUBCHEM_CONFORMER_DIVERSEORDER>
21
40
4
35
55
30
41
53
31
11
46
23
15
9
10
33
48
38
7
36
17
32
37
1
27
18
29
50
43
8
39
14
24
47
12
51
16
54
2
20
26
52
5
25
19
49
42
6
45
34
22
28
3
13
44

> <PUBCHEM_MMFF94_PARTIAL_CHARGES>
9
1 -0.68
12 0.14
13 0.28
20 0.15
3 0.14
38 0.4
4 0.14
6 -0.28
7 -0.29

> <PUBCHEM_EFFECTIVE_ROTOR_COUNT>
4.6

> <PUBCHEM_PHARMACOPHORE_FEATURES>
5
1 1 acceptor
1 1 donor
1 14 hydrophobe
3 3 8 9 hydrophobe
5 2 3 4 6 7 rings

> <PUBCHEM_HEAVY_ATOM_COUNT>
14

> <PUBCHEM_ATOM_DEF_STEREO_COUNT>
0

> <PUBCHEM_ATOM_UDEF_STEREO_COUNT>
2

> <PUBCHEM_BOND_DEF_STEREO_COUNT>
0

> <PUBCHEM_BOND_UDEF_STEREO_COUNT>
0

> <PUBCHEM_ISOTOPIC_ATOM_COUNT>
0

> <PUBCHEM_COMPONENT_COUNT>
1

> <PUBCHEM_CACTVS_TAUTO_COUNT>
1

> <PUBCHEM_CONFORMER_ID>
0002894C00000015

> <PUBCHEM_MMFF94_ENERGY>
29.572

> <PUBCHEM_FEATURE_SELFOVERLAP>
25.371

> <PUBCHEM_SHAPE_FINGERPRINT>
10219947 1 17676202485548309038
10354089 29 18410580565352604785
11471102 20 18040428906473148710
12251169 10 18413108338405919265
12932764 1 18410291415401315365
13296908 3 15502095271757251375
14144814 61 18343862221333205527
14251717 144 18187639219427999919
14252887 29 17676485008718676946
14344429 50 18201153347447621604
15375462 189 18335414621625144434
15501101 241 18187076248215617436
15775835 57 18412829092126955553
16945 1 17967254187478860102
17041 49 18273493459606615320
18186145 218 18259423018133225175
19050596 39 18410013243322897043
19422 9 18411699911234571967
200 152 18337096943778755103
20233049 118 17060053731237058954
20279233 1 16298382457623161539
20339313 130 17749394749821683324
20645477 56 15841834443713728155
20645477 70 17677312927900131763
20671657 1 18192432085271645756
21730867 7 17748821929743343142
2255824 54 18186239541442209238
22854114 111 18335983150709479821
23402539 116 17131825465374101860
23402655 69 18334566924151349047
23557571 272 16128371593233158115
3286 77 18270109235904422837
581208 293 18040708207827135935

> <PUBCHEM_SHAPE_MULTIPOLES>
282.24
8.53
1.54
1.11
7.04
0.04
0.16
0.34
-0.8
-0.44
-0.18
0.1
0.27
-1.15

> <PUBCHEM_SHAPE_SELFOVERLAP>
553.627

> <PUBCHEM_SHAPE_VOLUME>
173.7

> <PUBCHEM_COORDINATE_TYPE>
2
5
10

$$$$
