166246
  -OEChem-11232109023D

 31 33  0     1  0  0  0  0  0999 V2000
    0.7940    1.7443    0.6825 O   0  0  0  0  0  0  0  0  0  0  0  0
    2.5009   -1.3050   -0.0656 O   0  0  0  0  0  0  0  0  0  0  0  0
    3.3643    0.7465    0.5526 O   0  0  0  0  0  0  0  0  0  0  0  0
   -1.3085    0.9918   -0.3307 C   0  0  1  0  0  0  0  0  0  0  0  0
    0.1880    1.0223   -0.3897 C   0  0  2  0  0  0  0  0  0  0  0  0
   -1.9668   -0.1822   -1.1032 C   0  0  2  0  0  0  0  0  0  0  0  0
   -1.8774    0.8041    1.1103 C   0  0  0  0  0  0  0  0  0  0  0  0
   -2.8398   -0.3939    0.9432 C   0  0  1  0  0  0  0  0  0  0  0  0
   -3.3675   -0.1680   -0.4771 C   0  0  0  0  0  0  0  0  0  0  0  0
    1.0229    0.3300    0.6373 C   0  0  1  0  0  0  0  0  0  0  0  0
   -1.4820   -1.4998   -0.5435 C   0  0  0  0  0  0  0  0  0  0  0  0
   -2.0018   -1.6238    0.6865 C   0  0  0  0  0  0  0  0  0  0  0  0
    0.7285    1.3318   -1.7280 C   0  0  0  0  0  0  0  0  0  0  0  0
    2.4255   -0.0193    0.3818 C   0  0  0  0  0  0  0  0  0  0  0  0
    3.8197   -1.7787   -0.3561 C   0  0  0  0  0  0  0  0  0  0  0  0
   -1.6955    1.9431   -0.7227 H   0  0  0  0  0  0  0  0  0  0  0  0
   -1.9486   -0.1123   -2.1916 H   0  0  0  0  0  0  0  0  0  0  0  0
   -2.4595    1.6975    1.3727 H   0  0  0  0  0  0  0  0  0  0  0  0
   -1.1682    0.6505    1.9245 H   0  0  0  0  0  0  0  0  0  0  0  0
   -3.6046   -0.5068    1.7120 H   0  0  0  0  0  0  0  0  0  0  0  0
   -4.0156   -0.9773   -0.8371 H   0  0  0  0  0  0  0  0  0  0  0  0
   -3.8897    0.7878   -0.5991 H   0  0  0  0  0  0  0  0  0  0  0  0
    0.5599   -0.2786    1.4004 H   0  0  0  0  0  0  0  0  0  0  0  0
   -0.7959   -2.1808   -1.0211 H   0  0  0  0  0  0  0  0  0  0  0  0
    1.7844    1.6217   -1.6995 H   0  0  0  0  0  0  0  0  0  0  0  0
    0.6439    0.4636   -2.3900 H   0  0  0  0  0  0  0  0  0  0  0  0
    0.1879    2.1637   -2.1927 H   0  0  0  0  0  0  0  0  0  0  0  0
   -1.8138   -2.4240    1.3839 H   0  0  0  0  0  0  0  0  0  0  0  0
    4.2718   -1.1763   -1.1497 H   0  0  0  0  0  0  0  0  0  0  0  0
    3.7409   -2.8128   -0.7021 H   0  0  0  0  0  0  0  0  0  0  0  0
    4.4377   -1.7563    0.5465 H   0  0  0  0  0  0  0  0  0  0  0  0
  1  5  1  0  0  0  0
  1 10  1  0  0  0  0
  2 14  1  0  0  0  0
  2 15  1  0  0  0  0
  3 14  2  0  0  0  0
  4  5  1  0  0  0  0
  4  6  1  0  0  0  0
  4  7  1  0  0  0  0
  4 16  1  0  0  0  0
  5 10  1  0  0  0  0
  5 13  1  0  0  0  0
  6  9  1  0  0  0  0
  6 11  1  0  0  0  0
  6 17  1  0  0  0  0
  7  8  1  0  0  0  0
  7 18  1  0  0  0  0
  7 19  1  0  0  0  0
  8  9  1  0  0  0  0
  8 12  1  0  0  0  0
  8 20  1  0  0  0  0
  9 21  1  0  0  0  0
  9 22  1  0  0  0  0
 10 14  1  0  0  0  0
 10 23  1  0  0  0  0
 11 12  2  0  0  0  0
 11 24  1  0  0  0  0
 12 28  1  0  0  0  0
 13 25  1  0  0  0  0
 13 26  1  0  0  0  0
 13 27  1  0  0  0  0
 15 29  1  0  0  0  0
 15 30  1  0  0  0  0
 15 31  1  0  0  0  0
M  END
> <PUBCHEM_COMPOUND_CID>
166246

> <PUBCHEM_CONFORMER_RMSD>
0.6

> <PUBCHEM_CONFORMER_DIVERSEORDER>
3
76
99
41
45
104
71
33
85
46
94
55
90
77
70
106
78
43
19
89
50
91
18
59
74
96
86
34
81
61
84
23
98
8
53
80
73
83
26
51
2
102
100
40
20
57
97
65
75
5
105
4
88
54
92
58
1
35
60
101
39
12
82
24
56
64
48
95
103
42
93
72
10
63
17
52
32
13
15
36
67
9
28
31
68
29
21
44
62
22
66
14
11
87
25
30
69
16
7
79
38
27
49
37
47
6

> <PUBCHEM_MMFF94_PARTIAL_CHARGES>
16
1 -0.3
10 0.05
11 -0.29
12 -0.29
13 0.09
14 0.72
15 0.28
2 -0.43
23 0.1
24 0.15
28 0.15
3 -0.57
4 0.09
5 -0.04
6 0.14
8 0.14

> <PUBCHEM_EFFECTIVE_ROTOR_COUNT>
4.2

> <PUBCHEM_PHARMACOPHORE_FEATURES>
3
1 1 acceptor
1 3 acceptor
7 4 6 7 8 9 11 12 rings

> <PUBCHEM_HEAVY_ATOM_COUNT>
15

> <PUBCHEM_ATOM_DEF_STEREO_COUNT>
0

> <PUBCHEM_ATOM_UDEF_STEREO_COUNT>
5

> <PUBCHEM_BOND_DEF_STEREO_COUNT>
0

> <PUBCHEM_BOND_UDEF_STEREO_COUNT>
0

> <PUBCHEM_ISOTOPIC_ATOM_COUNT>
0

> <PUBCHEM_COMPONENT_COUNT>
1

> <PUBCHEM_CACTVS_TAUTO_COUNT>
1

> <PUBCHEM_CONFORMER_ID>
0002896600000003

> <PUBCHEM_MMFF94_ENERGY>
53.1022

> <PUBCHEM_FEATURE_SELFOVERLAP>
15.228

> <PUBCHEM_SHAPE_FINGERPRINT>
10465860 71 17240770562048198934
12507560 14 17846777399624777409
13024252 1 14129051509394814489
13296908 3 18113616781168373634
13299463 15 15647323165336782693
13571099 22 18341041986934949685
14350558 41 18263364844459167949
15076042 46 18060145305816438289
15309172 13 15051734226498831356
15375358 24 18188755236699211108
15775835 57 7925624522895424570
16945 1 18341327906802157809
17841504 4 17846208986177686832
18186145 218 11314307222518772786
20201158 50 18409441514045132418
20279233 1 18334285483481641922
20361792 2 17749106690538580534
20711983 138 18410858732930385627
20711985 344 17752190700416890212
20871999 31 17604150328680528190
21069387 34 17988347252663176327
22445834 79 18202002182844871507
22721475 48 18339082592674023582
230 275 12391524104151940352
23559900 14 18342165666560290056
305870 269 11959739230978249636
369184 2 17632575002567064249
598444 67 18190747435968433871
7364860 26 17972323072841834037
81228 2 17677600961170623460

> <PUBCHEM_SHAPE_MULTIPOLES>
291.09
5.52
1.77
1.22
3.38
0.32
0.2
2.39
-0.28
0.64
0.16
-0.29
-0.29
0.23

> <PUBCHEM_SHAPE_SELFOVERLAP>
628.562

> <PUBCHEM_SHAPE_VOLUME>
165

> <PUBCHEM_COORDINATE_TYPE>
2
5
10

$$$$
