166302
  -OEChem-11232108513D

 28 27  0     0  0  0  0  0  0999 V2000
    0.1206    0.1901    0.1631 O   0  0  0  0  0  0  0  0  0  0  0  0
   -1.2093   -1.6825   -0.0608 O   0  0  0  0  0  0  0  0  0  0  0  0
    3.6279    0.2177   -0.0160 C   0  0  0  0  0  0  0  0  0  0  0  0
    1.2585   -0.6375    0.4274 C   0  0  0  0  0  0  0  0  0  0  0  0
    2.4603    0.2249    0.6546 C   0  0  0  0  0  0  0  0  0  0  0  0
   -3.4021    0.4030   -0.0849 C   0  0  0  0  0  0  0  0  0  0  0  0
    4.7311    1.1682    0.3687 C   0  0  0  0  0  0  0  0  0  0  0  0
    3.9659   -0.6844   -1.1690 C   0  0  0  0  0  0  0  0  0  0  0  0
   -2.0878    0.5460   -0.3334 C   0  0  0  0  0  0  0  0  0  0  0  0
   -4.3511    1.5275   -0.4120 C   0  0  0  0  0  0  0  0  0  0  0  0
   -4.0674   -0.7991    0.5250 C   0  0  0  0  0  0  0  0  0  0  0  0
   -1.0465   -0.4738   -0.0628 C   0  0  0  0  0  0  0  0  0  0  0  0
    1.0706   -1.2159    1.3399 H   0  0  0  0  0  0  0  0  0  0  0  0
    1.3876   -1.3372   -0.4015 H   0  0  0  0  0  0  0  0  0  0  0  0
    2.3492    0.9317    1.4764 H   0  0  0  0  0  0  0  0  0  0  0  0
    5.6278    0.6105    0.6585 H   0  0  0  0  0  0  0  0  0  0  0  0
    4.9832    1.8178   -0.4760 H   0  0  0  0  0  0  0  0  0  0  0  0
    4.4544    1.8117    1.2106 H   0  0  0  0  0  0  0  0  0  0  0  0
    4.8427   -1.2932   -0.9234 H   0  0  0  0  0  0  0  0  0  0  0  0
    3.1632   -1.3698   -1.4455 H   0  0  0  0  0  0  0  0  0  0  0  0
    4.2015   -0.0861   -2.0557 H   0  0  0  0  0  0  0  0  0  0  0  0
   -1.7217    1.4827   -0.7482 H   0  0  0  0  0  0  0  0  0  0  0  0
   -5.1166    1.1830   -1.1152 H   0  0  0  0  0  0  0  0  0  0  0  0
   -3.8437    2.3839   -0.8687 H   0  0  0  0  0  0  0  0  0  0  0  0
   -4.8476    1.8824    0.4971 H   0  0  0  0  0  0  0  0  0  0  0  0
   -3.3661   -1.5081    0.9690 H   0  0  0  0  0  0  0  0  0  0  0  0
   -4.6578   -1.3267   -0.2309 H   0  0  0  0  0  0  0  0  0  0  0  0
   -4.7418   -0.4878    1.3306 H   0  0  0  0  0  0  0  0  0  0  0  0
  1  4  1  0  0  0  0
  1 12  1  0  0  0  0
  2 12  2  0  0  0  0
  3  5  2  0  0  0  0
  3  7  1  0  0  0  0
  3  8  1  0  0  0  0
  4  5  1  0  0  0  0
  4 13  1  0  0  0  0
  4 14  1  0  0  0  0
  5 15  1  0  0  0  0
  6  9  2  0  0  0  0
  6 10  1  0  0  0  0
  6 11  1  0  0  0  0
  7 16  1  0  0  0  0
  7 17  1  0  0  0  0
  7 18  1  0  0  0  0
  8 19  1  0  0  0  0
  8 20  1  0  0  0  0
  8 21  1  0  0  0  0
  9 12  1  0  0  0  0
  9 22  1  0  0  0  0
 10 23  1  0  0  0  0
 10 24  1  0  0  0  0
 10 25  1  0  0  0  0
 11 26  1  0  0  0  0
 11 27  1  0  0  0  0
 11 28  1  0  0  0  0
M  END
> <PUBCHEM_COMPOUND_CID>
166302

> <PUBCHEM_CONFORMER_RMSD>
0.6

> <PUBCHEM_CONFORMER_DIVERSEORDER>
1
134
104
59
128
37
116
133
131
5
135
105
35
47
132
4
89
136
17
118
13
46
83
48
58
121
111
3
81
21
107
114
127
125
39
85
6
69
67
10
26
64
94
32
77
112
60
27
51
109
98
12
11
96
86
54
124
22
34
50
113
102
101
115
61
93
44
57
65
137
23
70
33
74
95
75
79
20
62
129
123
72
117
24
18
103
42
25
87
126
63
88
120
68
110
122
71
119
139
73
82
130
49
36
78
40
91
80
53
84
56
38
76
8
52
14
28
16
31
99
15
90
9
2
66
43
41
19
106
55
7
100
92
29
97
30
138
45
108

> <PUBCHEM_MMFF94_PARTIAL_CHARGES>
14
1 -0.43
10 0.14
11 0.14
12 0.71
15 0.15
2 -0.57
22 0.15
3 -0.28
4 0.42
5 -0.29
6 -0.28
7 0.14
8 0.14
9 -0.14

> <PUBCHEM_EFFECTIVE_ROTOR_COUNT>
4

> <PUBCHEM_PHARMACOPHORE_FEATURES>
3
1 2 acceptor
3 3 7 8 hydrophobe
3 6 10 11 hydrophobe

> <PUBCHEM_HEAVY_ATOM_COUNT>
12

> <PUBCHEM_ATOM_DEF_STEREO_COUNT>
0

> <PUBCHEM_ATOM_UDEF_STEREO_COUNT>
0

> <PUBCHEM_BOND_DEF_STEREO_COUNT>
0

> <PUBCHEM_BOND_UDEF_STEREO_COUNT>
0

> <PUBCHEM_ISOTOPIC_ATOM_COUNT>
0

> <PUBCHEM_COMPONENT_COUNT>
1

> <PUBCHEM_CACTVS_TAUTO_COUNT>
1

> <PUBCHEM_CONFORMER_ID>
0002899E00000001

> <PUBCHEM_MMFF94_ENERGY>
16.9379

> <PUBCHEM_FEATURE_SELFOVERLAP>
15.223

> <PUBCHEM_SHAPE_FINGERPRINT>
10680689 15 18410298025371859939
13690532 89 10807932678058545296
14123238 8 18410292549019408688
14325111 11 18336261258827345947
15501527 16 18410294709572867425
18186145 218 16702292469070287163
190213 19 18410857659267630792
20279233 1 18060423538625668134
20645477 56 18341046410661730104
20645477 70 17417822720926027214
20828058 21 18334297569419437983
21501925 9 9367336037892561122
22485316 2 16200426979494261774
23402539 116 18343574144643686020
23402655 69 17846777386470973536
23559900 14 18272933804673649710
2916195 48 18339634655117620880
449060 50 18343302604174198608
4990 188 18273498944485528638
522135 26 17203611476034976692

> <PUBCHEM_SHAPE_MULTIPOLES>
235.22
10.44
1.3
0.84
2
0.02
-0.1
3.09
-0.61
-0.64
-0.05
0.47
-0.05
0.87

> <PUBCHEM_SHAPE_SELFOVERLAP>
443.598

> <PUBCHEM_SHAPE_VOLUME>
146.7

> <PUBCHEM_COORDINATE_TYPE>
2
5
10

$$$$
