166374
  -OEChem-11232108473D

 33 34  0     1  0  0  0  0  0999 V2000
    3.1356    0.6977   -1.7471 N   0  0  0  0  0  0  0  0  0  0  0  0
   -1.6936    0.8621    0.0892 C   0  0  0  0  0  0  0  0  0  0  0  0
   -0.3269    0.1996    0.3390 C   0  0  0  0  0  0  0  0  0  0  0  0
   -0.1198   -1.1230    0.1426 C   0  0  0  0  0  0  0  0  0  0  0  0
   -2.8193   -0.1983   -0.0437 C   0  0  0  0  0  0  0  0  0  0  0  0
    0.7977    1.1036    0.8223 C   0  0  0  0  0  0  0  0  0  0  0  0
   -1.1831   -2.0589   -0.3808 C   0  0  0  0  0  0  0  0  0  0  0  0
   -2.4150   -1.3588   -0.9398 C   0  0  0  0  0  0  0  0  0  0  0  0
    1.2013   -1.8006    0.4284 C   0  0  0  0  0  0  0  0  0  0  0  0
    2.2091    0.5083    0.7135 C   0  0  1  0  0  0  0  0  0  0  0  0
    2.2045   -0.9396    1.1963 C   0  0  0  0  0  0  0  0  0  0  0  0
   -1.6247    1.6976   -1.2075 C   0  0  0  0  0  0  0  0  0  0  0  0
   -2.0936    1.7960    1.2517 C   0  0  0  0  0  0  0  0  0  0  0  0
    2.7278    0.6144   -0.6641 C   0  0  0  0  0  0  0  0  0  0  0  0
   -3.7351    0.2621   -0.4355 H   0  0  0  0  0  0  0  0  0  0  0  0
   -3.0769   -0.5975    0.9473 H   0  0  0  0  0  0  0  0  0  0  0  0
    0.7739    2.0580    0.2835 H   0  0  0  0  0  0  0  0  0  0  0  0
    0.6050    1.3322    1.8789 H   0  0  0  0  0  0  0  0  0  0  0  0
   -0.7625   -2.6969   -1.1676 H   0  0  0  0  0  0  0  0  0  0  0  0
   -1.4878   -2.7227    0.4384 H   0  0  0  0  0  0  0  0  0  0  0  0
   -2.2144   -1.0035   -1.9571 H   0  0  0  0  0  0  0  0  0  0  0  0
   -3.2400   -2.0764   -1.0187 H   0  0  0  0  0  0  0  0  0  0  0  0
    1.0269   -2.7176    1.0048 H   0  0  0  0  0  0  0  0  0  0  0  0
    1.6441   -2.1094   -0.5270 H   0  0  0  0  0  0  0  0  0  0  0  0
    2.8767    1.0899    1.3623 H   0  0  0  0  0  0  0  0  0  0  0  0
    1.9428   -0.9569    2.2629 H   0  0  0  0  0  0  0  0  0  0  0  0
    3.2042   -1.3839    1.1140 H   0  0  0  0  0  0  0  0  0  0  0  0
   -1.2701    1.1044   -2.0575 H   0  0  0  0  0  0  0  0  0  0  0  0
   -2.6102    2.0995   -1.4700 H   0  0  0  0  0  0  0  0  0  0  0  0
   -0.9481    2.5533   -1.1049 H   0  0  0  0  0  0  0  0  0  0  0  0
   -3.1035    2.1966    1.1036 H   0  0  0  0  0  0  0  0  0  0  0  0
   -2.0839    1.2640    2.2101 H   0  0  0  0  0  0  0  0  0  0  0  0
   -1.4189    2.6548    1.3397 H   0  0  0  0  0  0  0  0  0  0  0  0
  1 14  3  0  0  0  0
  2  3  1  0  0  0  0
  2  5  1  0  0  0  0
  2 12  1  0  0  0  0
  2 13  1  0  0  0  0
  3  4  2  0  0  0  0
  3  6  1  0  0  0  0
  4  7  1  0  0  0  0
  4  9  1  0  0  0  0
  5  8  1  0  0  0  0
  5 15  1  0  0  0  0
  5 16  1  0  0  0  0
  6 10  1  0  0  0  0
  6 17  1  0  0  0  0
  6 18  1  0  0  0  0
  7  8  1  0  0  0  0
  7 19  1  0  0  0  0
  7 20  1  0  0  0  0
  8 21  1  0  0  0  0
  8 22  1  0  0  0  0
  9 11  1  0  0  0  0
  9 23  1  0  0  0  0
  9 24  1  0  0  0  0
 10 11  1  0  0  0  0
 10 14  1  0  0  0  0
 10 25  1  0  0  0  0
 11 26  1  0  0  0  0
 11 27  1  0  0  0  0
 12 28  1  0  0  0  0
 12 29  1  0  0  0  0
 12 30  1  0  0  0  0
 13 31  1  0  0  0  0
 13 32  1  0  0  0  0
 13 33  1  0  0  0  0
M  END
> <PUBCHEM_COMPOUND_CID>
166374

> <PUBCHEM_CONFORMER_RMSD>
0.6

> <PUBCHEM_CONFORMER_DIVERSEORDER>
1
2
3

> <PUBCHEM_MMFF94_PARTIAL_CHARGES>
9
1 -0.56
10 0.2
14 0.36
2 0.14
3 -0.28
4 -0.28
6 0.14
7 0.14
9 0.14

> <PUBCHEM_EFFECTIVE_ROTOR_COUNT>
1.6

> <PUBCHEM_PHARMACOPHORE_FEATURES>
4
1 1 acceptor
3 2 12 13 hydrophobe
6 2 3 4 5 7 8 rings
6 3 4 6 9 10 11 rings

> <PUBCHEM_HEAVY_ATOM_COUNT>
14

> <PUBCHEM_ATOM_DEF_STEREO_COUNT>
0

> <PUBCHEM_ATOM_UDEF_STEREO_COUNT>
1

> <PUBCHEM_BOND_DEF_STEREO_COUNT>
0

> <PUBCHEM_BOND_UDEF_STEREO_COUNT>
0

> <PUBCHEM_ISOTOPIC_ATOM_COUNT>
0

> <PUBCHEM_COMPONENT_COUNT>
1

> <PUBCHEM_CACTVS_TAUTO_COUNT>
1

> <PUBCHEM_CONFORMER_ID>
000289E600000001

> <PUBCHEM_MMFF94_ENERGY>
16.7721

> <PUBCHEM_FEATURE_SELFOVERLAP>
20.313

> <PUBCHEM_SHAPE_FINGERPRINT>
10353120 184 18268430328883048983
11206711 2 18339916112507799583
12202030 40 15769489936511143294
12423570 1 9543687880555679761
12808571 1 18338252474026506656
12932764 1 18410852165888499328
13299463 15 18337098059863479837
13380535 21 18341344283781424371
14614273 12 18263626476655478549
15775835 57 18335702723725881900
16945 1 18271802462489400723
20645476 183 18187366557855952143
21501502 16 18337105670661644451
22802520 49 17346047683747856676
2334 1 18340760438701377283
23419403 2 16760223692375790285
23552423 10 18261664866249417715
23557571 272 17702370948088607322
23559900 14 18059581240284544622
2748010 2 18125992768049807379
353137 74 18117841216474534996
5084963 1 18188476991469225059
537710 114 18337099168508458799
53812653 8 18411142449948434171
57177213 63 18186237337913022238
8030462 33 18336820974327566954

> <PUBCHEM_SHAPE_MULTIPOLES>
283.13
4.38
2.11
1.31
1.24
0.44
0.28
-0.61
0.92
-0.89
-0.02
0.51
-0.42
-0.81

> <PUBCHEM_SHAPE_SELFOVERLAP>
582.902

> <PUBCHEM_SHAPE_VOLUME>
159.3

> <PUBCHEM_COORDINATE_TYPE>
2
5
10

$$$$
