166343
  -OEChem-11232108503D

 45 45  0     0  0  0  0  0  0999 V2000
    0.6981   -2.3225    0.2795 O   0  0  0  0  0  0  0  0  0  0  0  0
    0.6774   -0.4948    1.6786 O   0  0  0  0  0  0  0  0  0  0  0  0
    2.1081    1.5455    0.5034 N   0  0  0  0  0  0  0  0  0  0  0  0
   -3.0363    1.2101    0.3023 C   0  0  0  0  0  0  0  0  0  0  0  0
   -3.8820    0.3208   -0.6160 C   0  0  0  0  0  0  0  0  0  0  0  0
   -1.7039    1.6925   -0.2803 C   0  0  0  0  0  0  0  0  0  0  0  0
   -5.2311   -0.0759   -0.0121 C   0  0  0  0  0  0  0  0  0  0  0  0
   -0.9321    2.6262    0.6574 C   0  0  0  0  0  0  0  0  0  0  0  0
   -5.9924   -1.0307   -0.9323 C   0  0  0  0  0  0  0  0  0  0  0  0
    0.3523    3.1610    0.0260 C   0  0  0  0  0  0  0  0  0  0  0  0
   -7.3171   -1.4559   -0.3188 C   0  0  0  0  0  0  0  0  0  0  0  0
    1.2660    2.0264   -0.3521 C   0  0  0  0  0  0  0  0  0  0  0  0
    2.9104    0.4884    0.0417 C   0  0  0  0  0  0  0  0  0  0  0  0
    2.4959   -0.8368    0.1750 C   0  0  0  0  0  0  0  0  0  0  0  0
    4.1364    0.7788   -0.5570 C   0  0  0  0  0  0  0  0  0  0  0  0
    3.3075   -1.8715   -0.2904 C   0  0  0  0  0  0  0  0  0  0  0  0
    4.9478   -0.2559   -1.0225 C   0  0  0  0  0  0  0  0  0  0  0  0
    4.5334   -1.5810   -0.8891 C   0  0  0  0  0  0  0  0  0  0  0  0
    1.2206   -1.1695    0.7961 C   0  0  0  0  0  0  0  0  0  0  0  0
   -0.5591   -2.7552    0.8105 C   0  0  0  0  0  0  0  0  0  0  0  0
   -2.8363    0.6654    1.2338 H   0  0  0  0  0  0  0  0  0  0  0  0
   -3.6332    2.0882    0.5800 H   0  0  0  0  0  0  0  0  0  0  0  0
   -4.0527    0.8454   -1.5641 H   0  0  0  0  0  0  0  0  0  0  0  0
   -3.3077   -0.5831   -0.8542 H   0  0  0  0  0  0  0  0  0  0  0  0
   -1.0976    0.8120   -0.5223 H   0  0  0  0  0  0  0  0  0  0  0  0
   -1.8992    2.2133   -1.2258 H   0  0  0  0  0  0  0  0  0  0  0  0
   -5.8310    0.8238    0.1697 H   0  0  0  0  0  0  0  0  0  0  0  0
   -5.0668   -0.5569    0.9598 H   0  0  0  0  0  0  0  0  0  0  0  0
   -1.5680    3.4754    0.9341 H   0  0  0  0  0  0  0  0  0  0  0  0
   -0.6940    2.0889    1.5834 H   0  0  0  0  0  0  0  0  0  0  0  0
   -5.3861   -1.9228   -1.1284 H   0  0  0  0  0  0  0  0  0  0  0  0
   -6.1798   -0.5467   -1.8977 H   0  0  0  0  0  0  0  0  0  0  0  0
    0.1341    3.7439   -0.8745 H   0  0  0  0  0  0  0  0  0  0  0  0
    0.8682    3.8118    0.7402 H   0  0  0  0  0  0  0  0  0  0  0  0
   -7.8458   -2.1368   -0.9932 H   0  0  0  0  0  0  0  0  0  0  0  0
   -7.1607   -1.9739    0.6328 H   0  0  0  0  0  0  0  0  0  0  0  0
   -7.9611   -0.5896   -0.1370 H   0  0  0  0  0  0  0  0  0  0  0  0
    1.1515    1.6106   -1.3703 H   0  0  0  0  0  0  0  0  0  0  0  0
    4.4697    1.8078   -0.6650 H   0  0  0  0  0  0  0  0  0  0  0  0
    3.0214   -2.9151   -0.1892 H   0  0  0  0  0  0  0  0  0  0  0  0
    5.9029   -0.0299   -1.4877 H   0  0  0  0  0  0  0  0  0  0  0  0
    5.1671   -2.3865   -1.2486 H   0  0  0  0  0  0  0  0  0  0  0  0
   -0.8489   -3.6742    0.2944 H   0  0  0  0  0  0  0  0  0  0  0  0
   -1.3254   -1.9946    0.6332 H   0  0  0  0  0  0  0  0  0  0  0  0
   -0.4638   -2.9656    1.8798 H   0  0  0  0  0  0  0  0  0  0  0  0
  1 19  1  0  0  0  0
  1 20  1  0  0  0  0
  2 19  2  0  0  0  0
  3 12  2  0  0  0  0
  3 13  1  0  0  0  0
  4  5  1  0  0  0  0
  4  6  1  0  0  0  0
  4 21  1  0  0  0  0
  4 22  1  0  0  0  0
  5  7  1  0  0  0  0
  5 23  1  0  0  0  0
  5 24  1  0  0  0  0
  6  8  1  0  0  0  0
  6 25  1  0  0  0  0
  6 26  1  0  0  0  0
  7  9  1  0  0  0  0
  7 27  1  0  0  0  0
  7 28  1  0  0  0  0
  8 10  1  0  0  0  0
  8 29  1  0  0  0  0
  8 30  1  0  0  0  0
  9 11  1  0  0  0  0
  9 31  1  0  0  0  0
  9 32  1  0  0  0  0
 10 12  1  0  0  0  0
 10 33  1  0  0  0  0
 10 34  1  0  0  0  0
 11 35  1  0  0  0  0
 11 36  1  0  0  0  0
 11 37  1  0  0  0  0
 12 38  1  0  0  0  0
 13 14  1  0  0  0  0
 13 15  2  0  0  0  0
 14 16  2  0  0  0  0
 14 19  1  0  0  0  0
 15 17  1  0  0  0  0
 15 39  1  0  0  0  0
 16 18  1  0  0  0  0
 16 40  1  0  0  0  0
 17 18  2  0  0  0  0
 17 41  1  0  0  0  0
 18 42  1  0  0  0  0
 20 43  1  0  0  0  0
 20 44  1  0  0  0  0
 20 45  1  0  0  0  0
M  END
> <PUBCHEM_COMPOUND_CID>
166343

> <PUBCHEM_CONFORMER_RMSD>
1

> <PUBCHEM_CONFORMER_DIVERSEORDER>
1
78
147
49
87
20
10
34
43
116
18
144
155
16
122
142
73
138
117
77
92
42
94
136
46
35
53
168
101
44
69
143
40
135
60
131
176
114
25
27
188
163
172
70
24
179
3
100
52
61
96
11
76
74
153
88
45
113
63
157
47
71
177
39
129
2
154
185
59
23
37
33
98
58
31
137
173
145
65
152
54
103
120
90
104
106
7
41
51
13
181
91
190
29
134
124
139
6
178
133
36
123
151
175
48
62
148
21
99
17
14
55
160
82
125
56
12
79
164
110
93
5
38
57
174
32
4
127
115
167
159
15
19
83
109
112
9
95
162
111
102
89
150
67
22
171
85
80
149
97
183
26
84
81
140
30
121
169
170
105
28
132
8
108
182
72
118
187
165
184
64
161
50
128
86
126
130
156
119
107
180
189
158
146
68
75
141
66
166
186

> <PUBCHEM_MMFF94_PARTIAL_CHARGES>
18
1 -0.43
10 0.06
12 0.33
13 0.18
14 0.09
15 -0.15
16 -0.15
17 -0.15
18 -0.15
19 0.63
2 -0.57
20 0.28
3 -0.63
38 0.06
39 0.15
40 0.15
41 0.15
42 0.15

> <PUBCHEM_EFFECTIVE_ROTOR_COUNT>
10

> <PUBCHEM_PHARMACOPHORE_FEATURES>
4
1 11 hydrophobe
1 2 acceptor
1 3 acceptor
6 13 14 15 16 17 18 rings

> <PUBCHEM_HEAVY_ATOM_COUNT>
20

> <PUBCHEM_ATOM_DEF_STEREO_COUNT>
0

> <PUBCHEM_ATOM_UDEF_STEREO_COUNT>
0

> <PUBCHEM_BOND_DEF_STEREO_COUNT>
0

> <PUBCHEM_BOND_UDEF_STEREO_COUNT>
0

> <PUBCHEM_ISOTOPIC_ATOM_COUNT>
0

> <PUBCHEM_COMPONENT_COUNT>
1

> <PUBCHEM_CACTVS_TAUTO_COUNT>
3

> <PUBCHEM_CONFORMER_ID>
000289C700000001

> <PUBCHEM_MMFF94_ENERGY>
35.4977

> <PUBCHEM_FEATURE_SELFOVERLAP>
20.302

> <PUBCHEM_SHAPE_FINGERPRINT>
108634 29 18336276686265886382
11578080 2 16628537328153692306
11961588 58 17022908990108877384
12592606 108 18201435909905626847
12596602 18 17418378025916711545
13402501 40 18261114114694025075
13464513 79 18342455945702797757
13533116 47 18129097995736335993
14251764 30 17560806493803060023
14576447 43 18410573959571726840
14767858 380 18335151903298279340
14931854 50 18334860497919206919
17492 54 17967821560552374476
20028762 73 18343581811192568598
20645477 70 18261666086758776733
20775438 99 17839436115211104335
221357 26 18410291415443493775
22393880 68 18262510378038332293
23379529 103 17408531645470630246
2871803 45 18334573508146686197
3472631 163 12035449441593715073
351380 3 18201718466417446077
404807 78 16733840834170104043
465052 167 18059859471564058053
484989 97 18043542805187237531
7970288 3 18343299241384053183

> <PUBCHEM_SHAPE_MULTIPOLES>
394.87
13.12
3.26
1.01
22.68
0.96
-0.11
-7.39
5.27
-0.24
-0.45
-0.21
-0.22
-0.19

> <PUBCHEM_SHAPE_SELFOVERLAP>
783.852

> <PUBCHEM_SHAPE_VOLUME>
235.1

> <PUBCHEM_COORDINATE_TYPE>
2
5
10

$$$$
