166486
  -OEChem-11232109263D

 31 30  0     0  0  0  0  0  0999 V2000
   -2.0866    0.1940   -0.3018 O   0  0  0  0  0  0  0  0  0  0  0  0
   -3.8013    1.4001    0.6689 O   0  0  0  0  0  0  0  0  0  0  0  0
   -1.7840   -2.1947   -0.2518 C   0  0  0  0  0  0  0  0  0  0  0  0
    2.1010   -1.9351    0.1278 C   0  0  0  0  0  0  0  0  0  0  0  0
   -2.6509   -1.0183    0.1813 C   0  0  0  0  0  0  0  0  0  0  0  0
   -0.3950   -2.1006    0.3139 C   0  0  0  0  0  0  0  0  0  0  0  0
    0.7140   -2.0301   -0.4377 C   0  0  0  0  0  0  0  0  0  0  0  0
    2.7846   -0.6682   -0.2973 C   0  0  0  0  0  0  0  0  0  0  0  0
    3.8793    1.5463    0.1327 C   0  0  0  0  0  0  0  0  0  0  0  0
    3.1863    0.2853    0.5565 C   0  0  0  0  0  0  0  0  0  0  0  0
    2.8816    2.6575   -0.1545 C   0  0  0  0  0  0  0  0  0  0  0  0
   -2.7680    1.3360    0.0166 C   0  0  0  0  0  0  0  0  0  0  0  0
   -2.0610    2.5276   -0.5547 C   0  0  0  0  0  0  0  0  0  0  0  0
   -2.2411   -3.1309    0.0877 H   0  0  0  0  0  0  0  0  0  0  0  0
   -1.7435   -2.2278   -1.3474 H   0  0  0  0  0  0  0  0  0  0  0  0
    2.6866   -2.7870   -0.2376 H   0  0  0  0  0  0  0  0  0  0  0  0
    2.0825   -2.0191    1.2214 H   0  0  0  0  0  0  0  0  0  0  0  0
   -3.6582   -1.1408   -0.2338 H   0  0  0  0  0  0  0  0  0  0  0  0
   -2.7223   -0.9809    1.2753 H   0  0  0  0  0  0  0  0  0  0  0  0
   -0.3075   -2.0940    1.3976 H   0  0  0  0  0  0  0  0  0  0  0  0
    0.6241   -2.0481   -1.5216 H   0  0  0  0  0  0  0  0  0  0  0  0
    2.9738   -0.5414   -1.3609 H   0  0  0  0  0  0  0  0  0  0  0  0
    4.5707    1.8578    0.9238 H   0  0  0  0  0  0  0  0  0  0  0  0
    4.4881    1.3648   -0.7611 H   0  0  0  0  0  0  0  0  0  0  0  0
    2.9956    0.1673    1.6202 H   0  0  0  0  0  0  0  0  0  0  0  0
    2.2050    2.3845   -0.9714 H   0  0  0  0  0  0  0  0  0  0  0  0
    2.2750    2.8831    0.7292 H   0  0  0  0  0  0  0  0  0  0  0  0
    3.4086    3.5721   -0.4448 H   0  0  0  0  0  0  0  0  0  0  0  0
   -2.0305    2.4525   -1.6445 H   0  0  0  0  0  0  0  0  0  0  0  0
   -1.0498    2.5900   -0.1447 H   0  0  0  0  0  0  0  0  0  0  0  0
   -2.6039    3.4372   -0.2821 H   0  0  0  0  0  0  0  0  0  0  0  0
  1  5  1  0  0  0  0
  1 12  1  0  0  0  0
  2 12  2  0  0  0  0
  3  5  1  0  0  0  0
  3  6  1  0  0  0  0
  3 14  1  0  0  0  0
  3 15  1  0  0  0  0
  4  7  1  0  0  0  0
  4  8  1  0  0  0  0
  4 16  1  0  0  0  0
  4 17  1  0  0  0  0
  5 18  1  0  0  0  0
  5 19  1  0  0  0  0
  6  7  2  3  0  0  0
  6 20  1  0  0  0  0
  7 21  1  0  0  0  0
  8 10  2  3  0  0  0
  8 22  1  0  0  0  0
  9 10  1  0  0  0  0
  9 11  1  0  0  0  0
  9 23  1  0  0  0  0
  9 24  1  0  0  0  0
 10 25  1  0  0  0  0
 11 26  1  0  0  0  0
 11 27  1  0  0  0  0
 11 28  1  0  0  0  0
 12 13  1  0  0  0  0
 13 29  1  0  0  0  0
 13 30  1  0  0  0  0
 13 31  1  0  0  0  0
M  END
> <PUBCHEM_COMPOUND_CID>
166486

> <PUBCHEM_CONFORMER_RMSD>
0.8

> <PUBCHEM_CONFORMER_DIVERSEORDER>
1
95
68
55
18
98
36
136
39
53
46
5
135
85
93
50
47
119
101
69
81
74
8
66
137
40
76
120
4
130
100
112
99
17
9
24
48
45
23
56
37
54
58
43
31
91
11
132
16
52
105
65
14
102
94
114
90
83
19
44
42
97
26
49
33
73
71
7
77
25
41
107
116
30
128
79
12
109
67
29
78
60
3
131
87
88
115
10
134
35
123
34
63
110
20
106
6
108
15
62
64
51
2
21
61
133
38
32
89
126
57
86
13
80
59
117
28
122
84
121
139
70
111
103
113
125
75
118
22
129
92
96
82
138
124
27
104
127
72

> <PUBCHEM_MMFF94_PARTIAL_CHARGES>
16
1 -0.43
10 -0.29
12 0.66
13 0.06
2 -0.57
20 0.15
21 0.15
22 0.15
25 0.15
3 0.14
4 0.28
5 0.28
6 -0.29
7 -0.29
8 -0.29
9 0.14

> <PUBCHEM_EFFECTIVE_ROTOR_COUNT>
7

> <PUBCHEM_PHARMACOPHORE_FEATURES>
2
1 11 hydrophobe
1 2 acceptor

> <PUBCHEM_HEAVY_ATOM_COUNT>
13

> <PUBCHEM_ATOM_DEF_STEREO_COUNT>
0

> <PUBCHEM_ATOM_UDEF_STEREO_COUNT>
0

> <PUBCHEM_BOND_DEF_STEREO_COUNT>
0

> <PUBCHEM_BOND_UDEF_STEREO_COUNT>
2

> <PUBCHEM_ISOTOPIC_ATOM_COUNT>
0

> <PUBCHEM_COMPONENT_COUNT>
1

> <PUBCHEM_CACTVS_TAUTO_COUNT>
1

> <PUBCHEM_CONFORMER_ID>
00028A5600000001

> <PUBCHEM_MMFF94_ENERGY>
3.8451

> <PUBCHEM_FEATURE_SELFOVERLAP>
10.148

> <PUBCHEM_SHAPE_FINGERPRINT>
10498660 4 18193832867322033054
10608611 8 18411419501225238150
11615756 256 18411422847109938444
12038231 1 18050285065975298124
13618510 140 18410570708381717140
14026960 21 18337117761252883195
17834072 32 18411420596272937737
20304884 271 18411700971759262470
20621476 13 17687735048016455597
20671657 1 18266180535025059646
21652331 79 18193839464444579490
21665062 11 18120655725876778834
22182937 141 18341059578883734435
22749437 52 18410564098363926932
22959321 54 18337665412174522207
59345606 82 18338232665695509196
8050 44 18411412882500955671
8199 26 18339080492482144258

> <PUBCHEM_SHAPE_MULTIPOLES>
255.8
7.18
3.63
0.73
1.69
0.81
0.01
4.55
0.76
-0.25
-0.33
-0.04
0.03
0.01

> <PUBCHEM_SHAPE_SELFOVERLAP>
474.646

> <PUBCHEM_SHAPE_VOLUME>
160.1

> <PUBCHEM_COORDINATE_TYPE>
2
5
10

$$$$
