166504
  -OEChem-11232109193D

 33 34  0     1  0  0  0  0  0999 V2000
   -0.2739   -0.1567    0.0326 O   0  0  0  0  0  0  0  0  0  0  0  0
   -1.6709    1.7159   -0.2015 O   0  0  0  0  0  0  0  0  0  0  0  0
   -1.6321    0.2973   -0.0527 C   0  0  0  0  0  0  0  0  0  0  0  0
   -2.3594   -0.4000   -1.1945 C   0  0  0  0  0  0  0  0  0  0  0  0
   -2.4113   -0.1638    1.1722 C   0  0  0  0  0  0  0  0  0  0  0  0
   -2.6890   -1.7822   -0.6378 C   0  0  0  0  0  0  0  0  0  0  0  0
   -2.7324   -1.6281    0.8840 C   0  0  0  0  0  0  0  0  0  0  0  0
    0.5032    0.9812   -0.3498 C   0  0  1  0  0  0  0  0  0  0  0  0
   -0.3448    2.1416    0.1136 C   0  0  0  0  0  0  0  0  0  0  0  0
    1.8746    0.9279    0.2880 C   0  0  0  0  0  0  0  0  0  0  0  0
    2.7032   -0.2436   -0.2460 C   0  0  0  0  0  0  0  0  0  0  0  0
    4.0999   -0.2728    0.3742 C   0  0  0  0  0  0  0  0  0  0  0  0
    4.9327   -1.4167   -0.1823 C   0  0  0  0  0  0  0  0  0  0  0  0
   -1.7501   -0.4725   -2.1012 H   0  0  0  0  0  0  0  0  0  0  0  0
   -3.2804    0.1363   -1.4531 H   0  0  0  0  0  0  0  0  0  0  0  0
   -3.3369    0.4140    1.2829 H   0  0  0  0  0  0  0  0  0  0  0  0
   -1.8395   -0.0581    2.0999 H   0  0  0  0  0  0  0  0  0  0  0  0
   -1.9103   -2.5021   -0.9155 H   0  0  0  0  0  0  0  0  0  0  0  0
   -3.6375   -2.1558   -1.0366 H   0  0  0  0  0  0  0  0  0  0  0  0
   -3.7085   -1.9075    1.2932 H   0  0  0  0  0  0  0  0  0  0  0  0
   -1.9840   -2.2830    1.3452 H   0  0  0  0  0  0  0  0  0  0  0  0
    0.5768    0.9789   -1.4447 H   0  0  0  0  0  0  0  0  0  0  0  0
   -0.2869    2.2964    1.1970 H   0  0  0  0  0  0  0  0  0  0  0  0
   -0.1118    3.0792   -0.3977 H   0  0  0  0  0  0  0  0  0  0  0  0
    1.7767    0.8184    1.3754 H   0  0  0  0  0  0  0  0  0  0  0  0
    2.4057    1.8680    0.0969 H   0  0  0  0  0  0  0  0  0  0  0  0
    2.1915   -1.1902   -0.0340 H   0  0  0  0  0  0  0  0  0  0  0  0
    2.7901   -0.1619   -1.3365 H   0  0  0  0  0  0  0  0  0  0  0  0
    4.0217   -0.3792    1.4624 H   0  0  0  0  0  0  0  0  0  0  0  0
    4.6152    0.6744    0.1768 H   0  0  0  0  0  0  0  0  0  0  0  0
    5.0578   -1.3203   -1.2655 H   0  0  0  0  0  0  0  0  0  0  0  0
    4.4606   -2.3824    0.0249 H   0  0  0  0  0  0  0  0  0  0  0  0
    5.9269   -1.4194    0.2755 H   0  0  0  0  0  0  0  0  0  0  0  0
  1  3  1  0  0  0  0
  1  8  1  0  0  0  0
  2  3  1  0  0  0  0
  2  9  1  0  0  0  0
  3  4  1  0  0  0  0
  3  5  1  0  0  0  0
  4  6  1  0  0  0  0
  4 14  1  0  0  0  0
  4 15  1  0  0  0  0
  5  7  1  0  0  0  0
  5 16  1  0  0  0  0
  5 17  1  0  0  0  0
  6  7  1  0  0  0  0
  6 18  1  0  0  0  0
  6 19  1  0  0  0  0
  7 20  1  0  0  0  0
  7 21  1  0  0  0  0
  8  9  1  0  0  0  0
  8 10  1  0  0  0  0
  8 22  1  0  0  0  0
  9 23  1  0  0  0  0
  9 24  1  0  0  0  0
 10 11  1  0  0  0  0
 10 25  1  0  0  0  0
 10 26  1  0  0  0  0
 11 12  1  0  0  0  0
 11 27  1  0  0  0  0
 11 28  1  0  0  0  0
 12 13  1  0  0  0  0
 12 29  1  0  0  0  0
 12 30  1  0  0  0  0
 13 31  1  0  0  0  0
 13 32  1  0  0  0  0
 13 33  1  0  0  0  0
M  END
> <PUBCHEM_COMPOUND_CID>
166504

> <PUBCHEM_CONFORMER_RMSD>
0.6

> <PUBCHEM_CONFORMER_DIVERSEORDER>
1
21
33
10
14
25
29
12
5
3
19
17
11
9
16
22
32
31
13
6
23
24
26
28
30
4
20
18
27
2
8
15
7

> <PUBCHEM_MMFF94_PARTIAL_CHARGES>
5
1 -0.56
2 -0.56
3 0.56
8 0.28
9 0.28

> <PUBCHEM_EFFECTIVE_ROTOR_COUNT>
4.6

> <PUBCHEM_PHARMACOPHORE_FEATURES>
5
1 1 acceptor
1 13 hydrophobe
1 2 acceptor
5 1 2 3 8 9 rings
5 3 4 5 6 7 rings

> <PUBCHEM_HEAVY_ATOM_COUNT>
13

> <PUBCHEM_ATOM_DEF_STEREO_COUNT>
0

> <PUBCHEM_ATOM_UDEF_STEREO_COUNT>
1

> <PUBCHEM_BOND_DEF_STEREO_COUNT>
0

> <PUBCHEM_BOND_UDEF_STEREO_COUNT>
0

> <PUBCHEM_ISOTOPIC_ATOM_COUNT>
0

> <PUBCHEM_COMPONENT_COUNT>
1

> <PUBCHEM_CACTVS_TAUTO_COUNT>
1

> <PUBCHEM_CONFORMER_ID>
00028A6800000001

> <PUBCHEM_MMFF94_ENERGY>
22.9095

> <PUBCHEM_FEATURE_SELFOVERLAP>
25.442

> <PUBCHEM_SHAPE_FINGERPRINT>
11046707 91 18413388731140736998
11127187 94 17822004333019640983
11137873 295 18334008428026428295
11357001 24 18339931402449390320
11543360 7 15719399468642739582
11769659 78 18341891956293340262
12032990 46 18408887369032987770
13024252 1 17313106332860354165
13296908 3 18409162246929440648
14123260 362 9583514348003918362
14251710 61 18335988635841776234
15061688 2 13613700453653608923
15342168 16 9511193987645495835
15534591 1 13118546408485760943
18186145 218 15719398343392904740
200 152 17560787853771374773
20281407 28 18341894095619648344
20281475 54 18341617040211738500
20361792 2 18337670931180838069
20645477 70 18264757938508130903
20653085 51 11170727505100769145
20671657 53 17313098687739472292
20711985 344 18042104506148710549
20871998 184 18272653419848421268
20871998 22 18265615566252172097
21061003 4 18341334478170517153
22485316 2 18410570674364668714
22926399 37 7997698571206446411
23402539 116 17988353777009110029
23403322 49 18335135384611497546
23559900 14 18410282598245114584
27216 239 11239997879853748599
305870 269 11311789357918521964

> <PUBCHEM_SHAPE_MULTIPOLES>
255.8
7.29
1.95
0.96
10.29
0.32
0.03
-4.84
0.24
-0.64
-0.03
-0.72
-0.2
0.14

> <PUBCHEM_SHAPE_SELFOVERLAP>
513.428

> <PUBCHEM_SHAPE_VOLUME>
153.1

> <PUBCHEM_COORDINATE_TYPE>
2
5
10

$$$$
