16734862
  -OEChem-11232108403D

 45 45  0     1  0  0  0  0  0999 V2000
   -0.3393    0.0246    0.1042 O   0  0  0  0  0  0  0  0  0  0  0  0
   -2.7099   -0.9749    1.1591 O   0  0  0  0  0  0  0  0  0  0  0  0
   -4.3116   -0.5421   -1.1656 O   0  0  0  0  0  0  0  0  0  0  0  0
    1.9005   -0.8400   -0.2582 C   0  0  1  0  0  0  0  0  0  0  0  0
    0.7295   -0.0287   -0.8393 C   0  0  2  0  0  0  0  0  0  0  0  0
    2.5367   -0.1175    0.9390 C   0  0  0  0  0  0  0  0  0  0  0  0
    1.8038    2.1215   -0.0004 C   0  0  1  0  0  0  0  0  0  0  0  0
    1.1636    1.3965   -1.1950 C   0  0  0  0  0  0  0  0  0  0  0  0
    2.9662    1.3027    0.5750 C   0  0  0  0  0  0  0  0  0  0  0  0
    1.4661   -2.2498    0.1467 C   0  0  0  0  0  0  0  0  0  0  0  0
    2.2779    3.5155   -0.4087 C   0  0  0  0  0  0  0  0  0  0  0  0
    0.8013   -2.9620   -1.0278 C   0  0  0  0  0  0  0  0  0  0  0  0
    2.6606   -3.0510    0.6569 C   0  0  0  0  0  0  0  0  0  0  0  0
   -1.5785    0.2918   -0.5339 C   0  0  0  0  0  0  0  0  0  0  0  0
   -2.7302    0.2848    0.4808 C   0  0  1  0  0  0  0  0  0  0  0  0
   -4.1070    0.4601   -0.1760 C   0  0  0  0  0  0  0  0  0  0  0  0
   -2.5298    1.3686    1.5432 C   0  0  0  0  0  0  0  0  0  0  0  0
    2.6678   -0.9188   -1.0425 H   0  0  0  0  0  0  0  0  0  0  0  0
    0.3901   -0.5026   -1.7684 H   0  0  0  0  0  0  0  0  0  0  0  0
    1.8345   -0.0817    1.7814 H   0  0  0  0  0  0  0  0  0  0  0  0
    3.4325   -0.6401    1.2891 H   0  0  0  0  0  0  0  0  0  0  0  0
    1.0441    2.2436    0.7830 H   0  0  0  0  0  0  0  0  0  0  0  0
    1.8910    1.3457   -2.0164 H   0  0  0  0  0  0  0  0  0  0  0  0
    0.3247    1.9937   -1.5653 H   0  0  0  0  0  0  0  0  0  0  0  0
    3.7860    1.2557   -0.1535 H   0  0  0  0  0  0  0  0  0  0  0  0
    3.3651    1.7989    1.4680 H   0  0  0  0  0  0  0  0  0  0  0  0
    0.7330   -2.2007    0.9625 H   0  0  0  0  0  0  0  0  0  0  0  0
    3.0409    3.4636   -1.1928 H   0  0  0  0  0  0  0  0  0  0  0  0
    1.4428    4.1140   -0.7876 H   0  0  0  0  0  0  0  0  0  0  0  0
    2.7080    4.0452    0.4478 H   0  0  0  0  0  0  0  0  0  0  0  0
    1.4234   -2.9216   -1.9284 H   0  0  0  0  0  0  0  0  0  0  0  0
   -0.1811   -2.5418   -1.2617 H   0  0  0  0  0  0  0  0  0  0  0  0
    0.6317   -4.0187   -0.7917 H   0  0  0  0  0  0  0  0  0  0  0  0
    2.3893   -4.1045    0.7906 H   0  0  0  0  0  0  0  0  0  0  0  0
    3.0040   -2.6998    1.6344 H   0  0  0  0  0  0  0  0  0  0  0  0
    3.5014   -3.0139   -0.0441 H   0  0  0  0  0  0  0  0  0  0  0  0
   -1.7536   -0.4947   -1.2782 H   0  0  0  0  0  0  0  0  0  0  0  0
   -1.5604    1.2576   -1.0481 H   0  0  0  0  0  0  0  0  0  0  0  0
   -4.1915    1.4403   -0.6568 H   0  0  0  0  0  0  0  0  0  0  0  0
   -4.9060    0.3542    0.5659 H   0  0  0  0  0  0  0  0  0  0  0  0
   -2.5172    2.3691    1.0984 H   0  0  0  0  0  0  0  0  0  0  0  0
   -3.3299    1.3324    2.2916 H   0  0  0  0  0  0  0  0  0  0  0  0
   -1.5928    1.2230    2.0926 H   0  0  0  0  0  0  0  0  0  0  0  0
   -1.8262   -1.0907    1.5489 H   0  0  0  0  0  0  0  0  0  0  0  0
   -5.1914   -0.3880   -1.5498 H   0  0  0  0  0  0  0  0  0  0  0  0
  1  5  1  0  0  0  0
  1 14  1  0  0  0  0
  2 15  1  0  0  0  0
  2 44  1  0  0  0  0
  3 16  1  0  0  0  0
  3 45  1  0  0  0  0
  4  5  1  0  0  0  0
  4  6  1  0  0  0  0
  4 10  1  0  0  0  0
  4 18  1  0  0  0  0
  5  8  1  0  0  0  0
  5 19  1  0  0  0  0
  6  9  1  0  0  0  0
  6 20  1  0  0  0  0
  6 21  1  0  0  0  0
  7  8  1  0  0  0  0
  7  9  1  0  0  0  0
  7 11  1  0  0  0  0
  7 22  1  0  0  0  0
  8 23  1  0  0  0  0
  8 24  1  0  0  0  0
  9 25  1  0  0  0  0
  9 26  1  0  0  0  0
 10 12  1  0  0  0  0
 10 13  1  0  0  0  0
 10 27  1  0  0  0  0
 11 28  1  0  0  0  0
 11 29  1  0  0  0  0
 11 30  1  0  0  0  0
 12 31  1  0  0  0  0
 12 32  1  0  0  0  0
 12 33  1  0  0  0  0
 13 34  1  0  0  0  0
 13 35  1  0  0  0  0
 13 36  1  0  0  0  0
 14 15  1  0  0  0  0
 14 37  1  0  0  0  0
 14 38  1  0  0  0  0
 15 16  1  0  0  0  0
 15 17  1  0  0  0  0
 16 39  1  0  0  0  0
 16 40  1  0  0  0  0
 17 41  1  0  0  0  0
 17 42  1  0  0  0  0
 17 43  1  0  0  0  0
M  END
> <PUBCHEM_COMPOUND_CID>
16734862

> <PUBCHEM_CONFORMER_RMSD>
0.8

> <PUBCHEM_CONFORMER_DIVERSEORDER>
1
276
126
37
266
194
234
275
47
142
223
175
106
211
159
177
199
157
238
179
224
254
279
35
117
216
144
39
133
225
280
94
214
247
188
160
88
268
155
220
255
114
150
119
165
18
109
193
138
230
141
231
53
274
282
55
38
152
265
16
244
205
64
69
54
87
272
145
100
161
79
92
118
170
182
60
200
84
46
186
278
153
58
48
36
232
281
65
89
103
195
262
135
168
123
51
130
212
261
66
82
189
218
183
80
162
201
208
137
43
283
248
116
50
19
222
241
267
226
146
25
95
190
173
249
110
235
236
147
13
27
187
99
271
257
154
166
245
242
196
113
140
98
184
237
203
96
131
128
207
213
111
101
31
73
204
181
243
259
20
219
163
115
215
174
70
252
67
112
108
258
277
180
178
233
167
260
197
251
124
74
246
2
21
228
97
63
125
104
217
176
210
120
221
143
107
164
239
83
75
151
127
102
209
91
81
270
85
273
191
227
22
71
185
105
263
206
256
12
229
192
198
62
34
68
17
78
26
148
169
253
9
93
44
56
40
8
158
90
77
6
29
264
49
86
171
121
136
132
11
45
250
24
72
7
156
23
134
10
52
122
30
61
33
149
59
32
139
240
172
129
14
15
57
269
41
4
202
5
76
28
42
3

> <PUBCHEM_MMFF94_PARTIAL_CHARGES>
9
1 -0.56
14 0.28
15 0.28
16 0.28
2 -0.68
3 -0.68
44 0.4
45 0.4
5 0.28

> <PUBCHEM_EFFECTIVE_ROTOR_COUNT>
6.2

> <PUBCHEM_PHARMACOPHORE_FEATURES>
7
1 1 acceptor
1 2 acceptor
1 2 donor
1 3 acceptor
1 3 donor
3 10 12 13 hydrophobe
6 4 5 6 7 8 9 rings

> <PUBCHEM_HEAVY_ATOM_COUNT>
17

> <PUBCHEM_ATOM_DEF_STEREO_COUNT>
0

> <PUBCHEM_ATOM_UDEF_STEREO_COUNT>
4

> <PUBCHEM_BOND_DEF_STEREO_COUNT>
0

> <PUBCHEM_BOND_UDEF_STEREO_COUNT>
0

> <PUBCHEM_ISOTOPIC_ATOM_COUNT>
0

> <PUBCHEM_COMPONENT_COUNT>
1

> <PUBCHEM_CACTVS_TAUTO_COUNT>
1

> <PUBCHEM_CONFORMER_ID>
00FF5A8E00000001

> <PUBCHEM_MMFF94_ENERGY>
40.3659

> <PUBCHEM_FEATURE_SELFOVERLAP>
35.53

> <PUBCHEM_SHAPE_FINGERPRINT>
12346645 6 18410006645978927716
12553582 1 17977680718141812467
13134695 92 18261952925627017646
15852999 172 18041838544756890395
16945 1 18335416868198923532
17492 89 18271807866128523615
20510252 161 17547858911236038666
20559304 39 18341623572461623249
20600515 1 17680447558193881206
20645477 70 18334288773716767063
20671657 1 18411989074165578782
21524375 3 18128539464718654332
2255824 54 18412834576916178862
23419403 2 17753023056815669630
23558518 356 17833823155827361174
23559900 14 18410849937227552243
23598291 2 17986965050313782613
305870 269 18412268367114507464
3060560 45 18410575119534611620
312423 11 17987815046206822675
474 4 18339080496566576321
576247 118 17834408825699115310
6333272 397 18268430311750509625
6443956 14 18192428563366379197
6992083 37 17767697052921384353
7364860 26 18411424985776753126
7615 1 17988366966716142825
81228 2 17254284419047193198
8272917 22 18412265021556387253
9709674 26 18334295362323485499

> <PUBCHEM_SHAPE_MULTIPOLES>
332.24
6.22
3.54
1.22
7.69
0.17
0.08
-0.17
0.64
-4.38
-0.34
0.4
0.01
-0.67

> <PUBCHEM_SHAPE_SELFOVERLAP>
647.564

> <PUBCHEM_SHAPE_VOLUME>
201.2

> <PUBCHEM_COORDINATE_TYPE>
2
5
10

$$$$
