16900
  -OEChem-11232109193D

 23 22  0     0  0  0  0  0  0999 V2000
    3.8113    1.3494   -0.1770 O   0  0  0  0  0  0  0  0  0  0  0  0
   -1.7844    0.0405   -0.2389 C   0  0  0  0  0  0  0  0  0  0  0  0
   -1.3650   -1.3830    0.1405 C   0  0  0  0  0  0  0  0  0  0  0  0
   -3.1994    0.3491    0.2519 C   0  0  0  0  0  0  0  0  0  0  0  0
    0.0586   -1.7378   -0.3012 C   0  0  0  0  0  0  0  0  0  0  0  0
   -3.6117    1.7710   -0.0944 C   0  0  0  0  0  0  0  0  0  0  0  0
    1.1139   -0.8918    0.3529 C   0  0  0  0  0  0  0  0  0  0  0  0
    1.9922   -0.1519   -0.3349 C   0  0  0  0  0  0  0  0  0  0  0  0
    2.9844    0.6543    0.4010 C   0  0  0  0  0  0  0  0  0  0  0  0
   -1.7350    0.1597   -1.3280 H   0  0  0  0  0  0  0  0  0  0  0  0
   -1.0907    0.7680    0.1983 H   0  0  0  0  0  0  0  0  0  0  0  0
   -1.4509   -1.5126    1.2270 H   0  0  0  0  0  0  0  0  0  0  0  0
   -2.0603   -2.0977   -0.3171 H   0  0  0  0  0  0  0  0  0  0  0  0
   -3.9108   -0.3526   -0.1988 H   0  0  0  0  0  0  0  0  0  0  0  0
   -3.2550    0.2150    1.3384 H   0  0  0  0  0  0  0  0  0  0  0  0
    0.1253   -1.6693   -1.3941 H   0  0  0  0  0  0  0  0  0  0  0  0
    0.2546   -2.7852   -0.0416 H   0  0  0  0  0  0  0  0  0  0  0  0
   -2.9394    2.4990    0.3708 H   0  0  0  0  0  0  0  0  0  0  0  0
   -4.6268    1.9692    0.2637 H   0  0  0  0  0  0  0  0  0  0  0  0
   -3.5959    1.9312   -1.1771 H   0  0  0  0  0  0  0  0  0  0  0  0
    1.1429   -0.9082    1.4398 H   0  0  0  0  0  0  0  0  0  0  0  0
    2.0004   -0.1112   -1.4175 H   0  0  0  0  0  0  0  0  0  0  0  0
    2.9426    0.5963    1.5014 H   0  0  0  0  0  0  0  0  0  0  0  0
  1  9  2  0  0  0  0
  2  3  1  0  0  0  0
  2  4  1  0  0  0  0
  2 10  1  0  0  0  0
  2 11  1  0  0  0  0
  3  5  1  0  0  0  0
  3 12  1  0  0  0  0
  3 13  1  0  0  0  0
  4  6  1  0  0  0  0
  4 14  1  0  0  0  0
  4 15  1  0  0  0  0
  5  7  1  0  0  0  0
  5 16  1  0  0  0  0
  5 17  1  0  0  0  0
  6 18  1  0  0  0  0
  6 19  1  0  0  0  0
  6 20  1  0  0  0  0
  7  8  2  3  0  0  0
  7 21  1  0  0  0  0
  8  9  1  0  0  0  0
  8 22  1  0  0  0  0
  9 23  1  0  0  0  0
M  END
> <PUBCHEM_COMPOUND_CID>
16900

> <PUBCHEM_CONFORMER_RMSD>
0.6

> <PUBCHEM_CONFORMER_DIVERSEORDER>
2
5
43
33
6
28
40
17
15
14
18
39
20
3
32
13
26
41
34
1
42
25
30
12
7
37
35
38
29
19
4
31
9
22
23
24
27
36
10
8
21
16
11

> <PUBCHEM_MMFF94_PARTIAL_CHARGES>
8
1 -0.57
21 0.15
22 0.15
23 0.06
5 0.14
7 -0.29
8 -0.14
9 0.5

> <PUBCHEM_EFFECTIVE_ROTOR_COUNT>
5

> <PUBCHEM_PHARMACOPHORE_FEATURES>
3
1 1 acceptor
1 6 hydrophobe
5 2 3 4 5 7 hydrophobe

> <PUBCHEM_HEAVY_ATOM_COUNT>
9

> <PUBCHEM_ATOM_DEF_STEREO_COUNT>
0

> <PUBCHEM_ATOM_UDEF_STEREO_COUNT>
0

> <PUBCHEM_BOND_DEF_STEREO_COUNT>
0

> <PUBCHEM_BOND_UDEF_STEREO_COUNT>
1

> <PUBCHEM_ISOTOPIC_ATOM_COUNT>
0

> <PUBCHEM_COMPONENT_COUNT>
1

> <PUBCHEM_CACTVS_TAUTO_COUNT>
1

> <PUBCHEM_CONFORMER_ID>
0000420400000002

> <PUBCHEM_MMFF94_ENERGY>
-0.5891

> <PUBCHEM_FEATURE_SELFOVERLAP>
15.223

> <PUBCHEM_SHAPE_FINGERPRINT>
10149128 111 18411139134181109401
10149128 76 18411699846651598887
122479 349 18334860523672971545
13618510 140 18340486668970049937
14251710 61 10015569632513939125
14325111 11 18411418397397342667
14390081 3 18412263909112358635
15775835 57 18409166610273315616
170605 34 18409730617015681491
177051 138 8502366733048339665
17834072 32 18410015476337424820
18342897 96 18343578572844677919
20211469 16 8862942783816193511
20281407 28 8862942788037457263
20653085 51 18411991268730635514
20711983 171 18411417358299899006
20767249 462 18335698321548057421
20828058 34 18272657856707971384
21524375 3 18411973650690404179
23500284 214 18410017641063511689
6430166 295 18410570678617457496
8199 26 18411420604831516081

> <PUBCHEM_SHAPE_MULTIPOLES>
179.35
6.66
1.83
0.68
0.14
0.05
-0.01
-5.12
-0.12
-0.33
0.08
0.03
0.02
0.05

> <PUBCHEM_SHAPE_SELFOVERLAP>
322.318

> <PUBCHEM_SHAPE_VOLUME>
115.5

> <PUBCHEM_COORDINATE_TYPE>
2
5
10

$$$$
