169211
  -OEChem-11232108533D

 28 29  0     1  0  0  0  0  0999 V2000
    3.1219   -0.1129    0.9931 O   0  0  0  0  0  0  0  0  0  0  0  0
   -1.6945   -0.4458   -0.1441 C   0  0  0  0  0  0  0  0  0  0  0  0
   -1.5261    0.8219    0.7544 C   0  0  1  0  0  0  0  0  0  0  0  0
   -0.2138   -0.7510    0.2684 C   0  0  2  0  0  0  0  0  0  0  0  0
   -0.6103   -0.0903    1.6329 C   0  0  0  0  0  0  0  0  0  0  0  0
   -0.7544    1.9560    0.0570 C   0  0  0  0  0  0  0  0  0  0  0  0
    0.7747    0.0784   -0.5007 C   0  0  0  0  0  0  0  0  0  0  0  0
   -1.9784   -0.2200   -1.6156 C   0  0  0  0  0  0  0  0  0  0  0  0
   -2.7080   -1.4534    0.3790 C   0  0  0  0  0  0  0  0  0  0  0  0
    0.4892    1.3911   -0.5889 C   0  0  0  0  0  0  0  0  0  0  0  0
    1.9697   -0.5809   -1.0997 C   0  0  0  0  0  0  0  0  0  0  0  0
    3.1300   -0.5932   -0.1356 C   0  0  0  0  0  0  0  0  0  0  0  0
   -2.4339    1.1796    1.2509 H   0  0  0  0  0  0  0  0  0  0  0  0
    0.0579   -1.8093    0.3312 H   0  0  0  0  0  0  0  0  0  0  0  0
   -1.1073   -0.7335    2.3648 H   0  0  0  0  0  0  0  0  0  0  0  0
    0.1943    0.4237    2.1721 H   0  0  0  0  0  0  0  0  0  0  0  0
   -0.4662    2.7161    0.7916 H   0  0  0  0  0  0  0  0  0  0  0  0
   -1.3821    2.4440   -0.6961 H   0  0  0  0  0  0  0  0  0  0  0  0
   -2.9988    0.1561   -1.7573 H   0  0  0  0  0  0  0  0  0  0  0  0
   -1.3215    0.4884   -2.1232 H   0  0  0  0  0  0  0  0  0  0  0  0
   -1.8993   -1.1617   -2.1720 H   0  0  0  0  0  0  0  0  0  0  0  0
   -3.7297   -1.0786    0.2447 H   0  0  0  0  0  0  0  0  0  0  0  0
   -2.6309   -2.3988   -0.1712 H   0  0  0  0  0  0  0  0  0  0  0  0
   -2.6082   -1.7042    1.4374 H   0  0  0  0  0  0  0  0  0  0  0  0
    1.1453    2.0698   -1.1240 H   0  0  0  0  0  0  0  0  0  0  0  0
    2.2959   -0.0504   -2.0013 H   0  0  0  0  0  0  0  0  0  0  0  0
    1.7461   -1.6127   -1.3891 H   0  0  0  0  0  0  0  0  0  0  0  0
    4.0424   -1.0812   -0.5208 H   0  0  0  0  0  0  0  0  0  0  0  0
  1 12  2  0  0  0  0
  2  3  1  0  0  0  0
  2  4  1  0  0  0  0
  2  8  1  0  0  0  0
  2  9  1  0  0  0  0
  3  5  1  0  0  0  0
  3  6  1  0  0  0  0
  3 13  1  0  0  0  0
  4  5  1  0  0  0  0
  4  7  1  0  0  0  0
  4 14  1  0  0  0  0
  5 15  1  0  0  0  0
  5 16  1  0  0  0  0
  6 10  1  0  0  0  0
  6 17  1  0  0  0  0
  6 18  1  0  0  0  0
  7 10  2  0  0  0  0
  7 11  1  0  0  0  0
  8 19  1  0  0  0  0
  8 20  1  0  0  0  0
  8 21  1  0  0  0  0
  9 22  1  0  0  0  0
  9 23  1  0  0  0  0
  9 24  1  0  0  0  0
 10 25  1  0  0  0  0
 11 12  1  0  0  0  0
 11 26  1  0  0  0  0
 11 27  1  0  0  0  0
 12 28  1  0  0  0  0
M  END
> <PUBCHEM_COMPOUND_CID>
169211

> <PUBCHEM_CONFORMER_RMSD>
0.6

> <PUBCHEM_CONFORMER_DIVERSEORDER>
1
8
3
5
4
6
7
2

> <PUBCHEM_MMFF94_PARTIAL_CHARGES>
9
1 -0.57
10 -0.29
11 0.2
12 0.45
25 0.15
28 0.06
4 0.12
6 0.14
7 -0.25

> <PUBCHEM_EFFECTIVE_ROTOR_COUNT>
2.6

> <PUBCHEM_PHARMACOPHORE_FEATURES>
3
1 1 acceptor
3 2 8 9 hydrophobe
7 2 3 4 5 6 7 10 rings

> <PUBCHEM_HEAVY_ATOM_COUNT>
12

> <PUBCHEM_ATOM_DEF_STEREO_COUNT>
0

> <PUBCHEM_ATOM_UDEF_STEREO_COUNT>
2

> <PUBCHEM_BOND_DEF_STEREO_COUNT>
0

> <PUBCHEM_BOND_UDEF_STEREO_COUNT>
0

> <PUBCHEM_ISOTOPIC_ATOM_COUNT>
0

> <PUBCHEM_COMPONENT_COUNT>
1

> <PUBCHEM_CACTVS_TAUTO_COUNT>
3

> <PUBCHEM_CONFORMER_ID>
000294FB00000001

> <PUBCHEM_MMFF94_ENERGY>
34.0815

> <PUBCHEM_FEATURE_SELFOVERLAP>
15.223

> <PUBCHEM_SHAPE_FINGERPRINT>
12423570 1 13572227690881393049
12932764 1 17418098685243269502
13024252 1 17313683558863022293
16945 1 18266758891031219017
369184 2 16702023028412507030
5084963 1 17987541254578600854
528886 8 18409728426692870403
54338 74 18334018293460760096

> <PUBCHEM_SHAPE_MULTIPOLES>
241.09
3.93
1.47
1.34
2.71
0.58
-0.01
-1.58
0.14
-0.58
-0.02
-0.23
-0.08
0.02

> <PUBCHEM_SHAPE_SELFOVERLAP>
504.837

> <PUBCHEM_SHAPE_VOLUME>
138.8

> <PUBCHEM_COORDINATE_TYPE>
2
5
10

$$$$
