169321
  -OEChem-11232109153D

 32 31  0     0  0  0  0  0  0999 V2000
    2.9734   -0.5353   -0.0419 O   0  0  0  0  0  0  0  0  0  0  0  0
    4.5580    1.1406    0.0912 O   0  0  0  0  0  0  0  0  0  0  0  0
   -3.1317    0.8956    0.0102 C   0  0  0  0  0  0  0  0  0  0  0  0
   -1.9194   -0.0415   -0.0391 C   0  0  0  0  0  0  0  0  0  0  0  0
   -4.5108    0.2106    0.0512 C   0  0  0  0  0  0  0  0  0  0  0  0
   -0.5778    0.6931   -0.0130 C   0  0  0  0  0  0  0  0  0  0  0  0
    0.5917   -0.2885   -0.0691 C   0  0  0  0  0  0  0  0  0  0  0  0
   -4.5880   -0.7215    1.2640 C   0  0  0  0  0  0  0  0  0  0  0  0
   -4.8100   -0.5769   -1.2248 C   0  0  0  0  0  0  0  0  0  0  0  0
    1.9318    0.4302   -0.0002 C   0  0  0  0  0  0  0  0  0  0  0  0
    4.2475   -0.0403    0.0118 C   0  0  0  0  0  0  0  0  0  0  0  0
    5.2354   -1.1662   -0.0403 C   0  0  0  0  0  0  0  0  0  0  0  0
   -3.0967    1.5663   -0.8578 H   0  0  0  0  0  0  0  0  0  0  0  0
   -3.0386    1.5395    0.8947 H   0  0  0  0  0  0  0  0  0  0  0  0
   -1.9431   -0.7285    0.8137 H   0  0  0  0  0  0  0  0  0  0  0  0
   -1.9687   -0.6551   -0.9459 H   0  0  0  0  0  0  0  0  0  0  0  0
   -5.2727    0.9922    0.1615 H   0  0  0  0  0  0  0  0  0  0  0  0
   -0.5105    1.2965    0.9004 H   0  0  0  0  0  0  0  0  0  0  0  0
   -0.5209    1.3841   -0.8625 H   0  0  0  0  0  0  0  0  0  0  0  0
    0.5445   -0.8845   -0.9891 H   0  0  0  0  0  0  0  0  0  0  0  0
    0.5247   -1.0071    0.7574 H   0  0  0  0  0  0  0  0  0  0  0  0
   -4.2964   -0.2006    2.1820 H   0  0  0  0  0  0  0  0  0  0  0  0
   -3.9559   -1.6077    1.1502 H   0  0  0  0  0  0  0  0  0  0  0  0
   -5.6162   -1.0757    1.3994 H   0  0  0  0  0  0  0  0  0  0  0  0
   -4.1283   -1.4233   -1.3546 H   0  0  0  0  0  0  0  0  0  0  0  0
   -5.8304   -0.9746   -1.1984 H   0  0  0  0  0  0  0  0  0  0  0  0
   -4.7257    0.0675   -2.1061 H   0  0  0  0  0  0  0  0  0  0  0  0
    2.0030    1.0027    0.9322 H   0  0  0  0  0  0  0  0  0  0  0  0
    2.0339    1.1151   -0.8502 H   0  0  0  0  0  0  0  0  0  0  0  0
    5.1195   -1.7174   -0.9768 H   0  0  0  0  0  0  0  0  0  0  0  0
    5.0885   -1.8277    0.8171 H   0  0  0  0  0  0  0  0  0  0  0  0
    6.2503   -0.7607    0.0020 H   0  0  0  0  0  0  0  0  0  0  0  0
  1 10  1  0  0  0  0
  1 11  1  0  0  0  0
  2 11  2  0  0  0  0
  3  4  1  0  0  0  0
  3  5  1  0  0  0  0
  3 13  1  0  0  0  0
  3 14  1  0  0  0  0
  4  6  1  0  0  0  0
  4 15  1  0  0  0  0
  4 16  1  0  0  0  0
  5  8  1  0  0  0  0
  5  9  1  0  0  0  0
  5 17  1  0  0  0  0
  6  7  1  0  0  0  0
  6 18  1  0  0  0  0
  6 19  1  0  0  0  0
  7 10  1  0  0  0  0
  7 20  1  0  0  0  0
  7 21  1  0  0  0  0
  8 22  1  0  0  0  0
  8 23  1  0  0  0  0
  8 24  1  0  0  0  0
  9 25  1  0  0  0  0
  9 26  1  0  0  0  0
  9 27  1  0  0  0  0
 10 28  1  0  0  0  0
 10 29  1  0  0  0  0
 11 12  1  0  0  0  0
 12 30  1  0  0  0  0
 12 31  1  0  0  0  0
 12 32  1  0  0  0  0
M  END
> <PUBCHEM_COMPOUND_CID>
169321

> <PUBCHEM_CONFORMER_RMSD>
0.8

> <PUBCHEM_CONFORMER_DIVERSEORDER>
1
14
24
29
12
40
2
35
26
39
3
31
22
9
27
18
7
38
33
34
25
4
15
13
23
8
21
37
16
5
11
32
36
6
10
30
17
19
28
20

> <PUBCHEM_MMFF94_PARTIAL_CHARGES>
5
1 -0.43
10 0.28
11 0.66
12 0.06
2 -0.57

> <PUBCHEM_EFFECTIVE_ROTOR_COUNT>
7

> <PUBCHEM_PHARMACOPHORE_FEATURES>
3
1 2 acceptor
3 5 8 9 hydrophobe
5 3 4 5 6 7 hydrophobe

> <PUBCHEM_HEAVY_ATOM_COUNT>
12

> <PUBCHEM_ATOM_DEF_STEREO_COUNT>
0

> <PUBCHEM_ATOM_UDEF_STEREO_COUNT>
0

> <PUBCHEM_BOND_DEF_STEREO_COUNT>
0

> <PUBCHEM_BOND_UDEF_STEREO_COUNT>
0

> <PUBCHEM_ISOTOPIC_ATOM_COUNT>
0

> <PUBCHEM_COMPONENT_COUNT>
1

> <PUBCHEM_CACTVS_TAUTO_COUNT>
1

> <PUBCHEM_CONFORMER_ID>
0002956900000001

> <PUBCHEM_MMFF94_ENERGY>
7.7958

> <PUBCHEM_FEATURE_SELFOVERLAP>
15.227

> <PUBCHEM_SHAPE_FINGERPRINT>
10680689 15 18341894082835064173
10912923 1 17489588978050969603
11287383 113 17894916264777423440
11401426 45 15719389542783239109
12091667 2 18342457027907929708
14123238 8 18131913771098162869
1420 363 18260835894658797147
14455015 7 18335428945367554082
15242439 84 17676202477190495837
15501527 16 10880001250818969443
17834072 33 17988921205964113332
20281389 69 12895084989809628331
20645477 70 18340206294021977350
20719005 15 18411699872479353492
20767249 13 18410290311151504439
22485316 2 16732978721878207339
23402539 116 18201996612662730749
23557571 272 17895192134811328997
42788 4 18411981351613985333
49783359 22 17917989473352551751
542803 24 15770059436294816008
57483677 66 18408884023137705450

> <PUBCHEM_SHAPE_MULTIPOLES>
235.22
13.61
1.03
0.87
5.15
0.01
0
-2.7
-0.09
0.44
0.03
-1.27
-0.19
0.15

> <PUBCHEM_SHAPE_SELFOVERLAP>
427.949

> <PUBCHEM_SHAPE_VOLUME>
150.9

> <PUBCHEM_COORDINATE_TYPE>
2
5
10

$$$$
