170398
  -OEChem-11232109063D

 31 30  0     0  0  0  0  0  0999 V2000
   -3.5490    2.0161   -0.0355 O   0  0  0  0  0  0  0  0  0  0  0  0
    1.5274    0.1867   -0.5736 C   0  0  0  0  0  0  0  0  0  0  0  0
    2.9849    0.4033   -0.1241 C   0  0  0  0  0  0  0  0  0  0  0  0
    1.1102   -1.2885   -0.5952 C   0  0  0  0  0  0  0  0  0  0  0  0
   -0.3493   -1.4964   -1.0224 C   0  0  0  0  0  0  0  0  0  0  0  0
    3.2504   -0.1441    1.2790 C   0  0  0  0  0  0  0  0  0  0  0  0
    3.3243    1.8952   -0.1691 C   0  0  0  0  0  0  0  0  0  0  0  0
   -1.3673   -0.8864   -0.0834 C   0  0  0  0  0  0  0  0  0  0  0  0
   -1.3721   -1.4539    1.3132 C   0  0  0  0  0  0  0  0  0  0  0  0
   -2.2523    0.0714   -0.4225 C   0  0  0  0  0  0  0  0  0  0  0  0
   -3.3071    0.6967    0.4338 C   0  0  0  0  0  0  0  0  0  0  0  0
    1.3927    0.6084   -1.5779 H   0  0  0  0  0  0  0  0  0  0  0  0
    0.8647    0.7497    0.0951 H   0  0  0  0  0  0  0  0  0  0  0  0
    3.6496   -0.1158   -0.8261 H   0  0  0  0  0  0  0  0  0  0  0  0
    1.2596   -1.7489    0.3866 H   0  0  0  0  0  0  0  0  0  0  0  0
    1.7580   -1.8304   -1.2954 H   0  0  0  0  0  0  0  0  0  0  0  0
   -0.5468   -2.5731   -1.0995 H   0  0  0  0  0  0  0  0  0  0  0  0
   -0.4820   -1.0926   -2.0342 H   0  0  0  0  0  0  0  0  0  0  0  0
    3.1914   -1.2362    1.3020 H   0  0  0  0  0  0  0  0  0  0  0  0
    2.5333    0.2552    2.0041 H   0  0  0  0  0  0  0  0  0  0  0  0
    4.2570    0.1265    1.6167 H   0  0  0  0  0  0  0  0  0  0  0  0
    4.3720    2.0647    0.1009 H   0  0  0  0  0  0  0  0  0  0  0  0
    2.6987    2.4669    0.5249 H   0  0  0  0  0  0  0  0  0  0  0  0
    3.1710    2.2988   -1.1756 H   0  0  0  0  0  0  0  0  0  0  0  0
   -2.3046   -1.2758    1.8556 H   0  0  0  0  0  0  0  0  0  0  0  0
   -0.5492   -1.0315    1.8986 H   0  0  0  0  0  0  0  0  0  0  0  0
   -1.2454   -2.5418    1.2786 H   0  0  0  0  0  0  0  0  0  0  0  0
   -2.2300    0.4187   -1.4551 H   0  0  0  0  0  0  0  0  0  0  0  0
   -4.2396    0.1304    0.3522 H   0  0  0  0  0  0  0  0  0  0  0  0
   -3.0059    0.7693    1.4819 H   0  0  0  0  0  0  0  0  0  0  0  0
   -4.2518    2.3930    0.5210 H   0  0  0  0  0  0  0  0  0  0  0  0
  1 11  1  0  0  0  0
  1 31  1  0  0  0  0
  2  3  1  0  0  0  0
  2  4  1  0  0  0  0
  2 12  1  0  0  0  0
  2 13  1  0  0  0  0
  3  6  1  0  0  0  0
  3  7  1  0  0  0  0
  3 14  1  0  0  0  0
  4  5  1  0  0  0  0
  4 15  1  0  0  0  0
  4 16  1  0  0  0  0
  5  8  1  0  0  0  0
  5 17  1  0  0  0  0
  5 18  1  0  0  0  0
  6 19  1  0  0  0  0
  6 20  1  0  0  0  0
  6 21  1  0  0  0  0
  7 22  1  0  0  0  0
  7 23  1  0  0  0  0
  7 24  1  0  0  0  0
  8  9  1  0  0  0  0
  8 10  2  3  0  0  0
  9 25  1  0  0  0  0
  9 26  1  0  0  0  0
  9 27  1  0  0  0  0
 10 11  1  0  0  0  0
 10 28  1  0  0  0  0
 11 29  1  0  0  0  0
 11 30  1  0  0  0  0
M  END
> <PUBCHEM_COMPOUND_CID>
170398

> <PUBCHEM_CONFORMER_RMSD>
0.6

> <PUBCHEM_CONFORMER_DIVERSEORDER>
1
3
19
26
33
23
27
13
14
5
8
16
21
7
15
22
29
31
4
25
28
2
24
30
12
17
32
9
34
11
10
20
6
18

> <PUBCHEM_MMFF94_PARTIAL_CHARGES>
8
1 -0.68
10 -0.29
11 0.42
28 0.15
31 0.4
5 0.14
8 -0.28
9 0.14

> <PUBCHEM_EFFECTIVE_ROTOR_COUNT>
5

> <PUBCHEM_PHARMACOPHORE_FEATURES>
5
1 1 acceptor
1 1 donor
1 9 hydrophobe
3 3 6 7 hydrophobe
5 2 3 4 5 8 hydrophobe

> <PUBCHEM_HEAVY_ATOM_COUNT>
11

> <PUBCHEM_ATOM_DEF_STEREO_COUNT>
0

> <PUBCHEM_ATOM_UDEF_STEREO_COUNT>
0

> <PUBCHEM_BOND_DEF_STEREO_COUNT>
0

> <PUBCHEM_BOND_UDEF_STEREO_COUNT>
1

> <PUBCHEM_ISOTOPIC_ATOM_COUNT>
0

> <PUBCHEM_COMPONENT_COUNT>
1

> <PUBCHEM_CACTVS_TAUTO_COUNT>
1

> <PUBCHEM_CONFORMER_ID>
0002999E00000001

> <PUBCHEM_MMFF94_ENERGY>
9.2081

> <PUBCHEM_FEATURE_SELFOVERLAP>
25.376

> <PUBCHEM_SHAPE_FINGERPRINT>
10149128 111 18343024384513783417
10149128 76 18342743996284903743
12162725 195 18410287042728891006
122479 349 18409451388290879885
12251169 10 17531250611857058710
12897270 3 13901911124062836406
12932764 1 17488747925155831966
13618510 140 18343872120969384004
14252887 29 13479140073041284188
15276787 5 17895187771124451634
15775835 57 18201721790300016220
18186145 218 17774452581100559055
19107657 162 12685083778961954160
201361 129 18042121115430452096
20281407 28 9151170952476067031
20653085 51 18272941513412166847
20711983 138 11602810333156808399
20711983 171 18341049717907809020
20767249 462 18342173353908242941
20871998 22 8502360110351252735
20871999 31 12679171692524083625
21524375 3 18412537687491863727
21947302 44 18270968916637556951
22485316 2 8430317926386781895
23402539 116 18336258063725560487
23500284 214 18411428305981768817
27216 239 18193840563798042776
305870 269 18337106757230627259
59915604 170 14979664533406337346

> <PUBCHEM_SHAPE_MULTIPOLES>
220.51
6.49
1.9
1.12
0.64
0.57
0.27
4.26
1.19
-0.63
-0.1
0.21
-0.42
-0.04

> <PUBCHEM_SHAPE_SELFOVERLAP>
400.792

> <PUBCHEM_SHAPE_VOLUME>
142.2

> <PUBCHEM_COORDINATE_TYPE>
2
5
10

$$$$
