170687
  -OEChem-11232109063D

 41 42  0     1  0  0  0  0  0999 V2000
    3.7731   -0.0035   -0.0018 O   0  0  0  0  0  0  0  0  0  0  0  0
    1.5065   -0.5846   -0.4937 C   0  0  2  0  0  0  0  0  0  0  0  0
    1.5090    0.5840    0.4949 C   0  0  2  0  0  0  0  0  0  0  0  0
    1.1593   -1.9378    0.1661 C   0  0  0  0  0  0  0  0  0  0  0  0
    1.1636    1.9383   -0.1638 C   0  0  0  0  0  0  0  0  0  0  0  0
    2.9407   -0.5741   -1.0145 C   0  0  0  0  0  0  0  0  0  0  0  0
    2.9446    0.5702    1.0123 C   0  0  0  0  0  0  0  0  0  0  0  0
   -0.2958   -2.0490    0.6500 C   0  0  0  0  0  0  0  0  0  0  0  0
   -0.2911    2.0525   -0.6479 C   0  0  0  0  0  0  0  0  0  0  0  0
   -1.3184   -2.0983   -0.4921 C   0  0  0  0  0  0  0  0  0  0  0  0
   -1.3145    2.0973    0.4938 C   0  0  0  0  0  0  0  0  0  0  0  0
   -2.7723   -1.9404   -0.0220 C   0  0  0  0  0  0  0  0  0  0  0  0
   -2.7681    1.9425    0.0216 C   0  0  0  0  0  0  0  0  0  0  0  0
   -3.1200   -0.5514    0.5313 C   0  0  0  0  0  0  0  0  0  0  0  0
   -3.1166    0.5544   -0.5342 C   0  0  0  0  0  0  0  0  0  0  0  0
    0.8333   -0.4362   -1.3404 H   0  0  0  0  0  0  0  0  0  0  0  0
    0.8375    0.4371    1.3432 H   0  0  0  0  0  0  0  0  0  0  0  0
    1.8233   -2.1130    1.0217 H   0  0  0  0  0  0  0  0  0  0  0  0
    1.3542   -2.7492   -0.5467 H   0  0  0  0  0  0  0  0  0  0  0  0
    1.8281    2.1134   -1.0191 H   0  0  0  0  0  0  0  0  0  0  0  0
    1.3597    2.7485    0.5500 H   0  0  0  0  0  0  0  0  0  0  0  0
    3.3183   -1.5659   -1.2805 H   0  0  0  0  0  0  0  0  0  0  0  0
    3.0246    0.0648   -1.9007 H   0  0  0  0  0  0  0  0  0  0  0  0
    3.3254    1.5613    1.2766 H   0  0  0  0  0  0  0  0  0  0  0  0
    3.0288   -0.0681    1.8990 H   0  0  0  0  0  0  0  0  0  0  0  0
   -0.5143   -1.2312    1.3392 H   0  0  0  0  0  0  0  0  0  0  0  0
   -0.3942   -2.9710    1.2372 H   0  0  0  0  0  0  0  0  0  0  0  0
   -0.5097    1.2377   -1.3408 H   0  0  0  0  0  0  0  0  0  0  0  0
   -0.3886    2.9770   -1.2312 H   0  0  0  0  0  0  0  0  0  0  0  0
   -1.2224   -3.0683   -0.9964 H   0  0  0  0  0  0  0  0  0  0  0  0
   -1.0978   -1.3447   -1.2506 H   0  0  0  0  0  0  0  0  0  0  0  0
   -1.2183    3.0651    1.0022 H   0  0  0  0  0  0  0  0  0  0  0  0
   -1.0951    1.3403    1.2490 H   0  0  0  0  0  0  0  0  0  0  0  0
   -2.9788   -2.6904    0.7514 H   0  0  0  0  0  0  0  0  0  0  0  0
   -3.4411   -2.1652   -0.8618 H   0  0  0  0  0  0  0  0  0  0  0  0
   -2.9725    2.6938   -0.7510 H   0  0  0  0  0  0  0  0  0  0  0  0
   -3.4378    2.1669    0.8609 H   0  0  0  0  0  0  0  0  0  0  0  0
   -2.4583   -0.3124    1.3665 H   0  0  0  0  0  0  0  0  0  0  0  0
   -4.1271   -0.5974    0.9659 H   0  0  0  0  0  0  0  0  0  0  0  0
   -2.4518    0.3144   -1.3665 H   0  0  0  0  0  0  0  0  0  0  0  0
   -4.1217    0.6029   -0.9729 H   0  0  0  0  0  0  0  0  0  0  0  0
  1  6  1  0  0  0  0
  1  7  1  0  0  0  0
  2  3  1  0  0  0  0
  2  4  1  0  0  0  0
  2  6  1  0  0  0  0
  2 16  1  0  0  0  0
  3  5  1  0  0  0  0
  3  7  1  0  0  0  0
  3 17  1  0  0  0  0
  4  8  1  0  0  0  0
  4 18  1  0  0  0  0
  4 19  1  0  0  0  0
  5  9  1  0  0  0  0
  5 20  1  0  0  0  0
  5 21  1  0  0  0  0
  6 22  1  0  0  0  0
  6 23  1  0  0  0  0
  7 24  1  0  0  0  0
  7 25  1  0  0  0  0
  8 10  1  0  0  0  0
  8 26  1  0  0  0  0
  8 27  1  0  0  0  0
  9 11  1  0  0  0  0
  9 28  1  0  0  0  0
  9 29  1  0  0  0  0
 10 12  1  0  0  0  0
 10 30  1  0  0  0  0
 10 31  1  0  0  0  0
 11 13  1  0  0  0  0
 11 32  1  0  0  0  0
 11 33  1  0  0  0  0
 12 14  1  0  0  0  0
 12 34  1  0  0  0  0
 12 35  1  0  0  0  0
 13 15  1  0  0  0  0
 13 36  1  0  0  0  0
 13 37  1  0  0  0  0
 14 15  1  0  0  0  0
 14 38  1  0  0  0  0
 14 39  1  0  0  0  0
 15 40  1  0  0  0  0
 15 41  1  0  0  0  0
M  END
> <PUBCHEM_COMPOUND_CID>
170687

> <PUBCHEM_CONFORMER_RMSD>
0.6

> <PUBCHEM_CONFORMER_DIVERSEORDER>
1
2
37
38
5
19
12
4
11
8
29
28
42
26
14
36
41
18
44
39
17
32
9
3
30
45
7
23
25
31
40
10
24
16
35
15
27
13
34
43
22
20
6
33
21

> <PUBCHEM_MMFF94_PARTIAL_CHARGES>
3
1 -0.56
6 0.28
7 0.28

> <PUBCHEM_EFFECTIVE_ROTOR_COUNT>
2.6

> <PUBCHEM_PHARMACOPHORE_FEATURES>
2
1 1 acceptor
5 1 2 3 6 7 rings

> <PUBCHEM_HEAVY_ATOM_COUNT>
15

> <PUBCHEM_ATOM_DEF_STEREO_COUNT>
0

> <PUBCHEM_ATOM_UDEF_STEREO_COUNT>
2

> <PUBCHEM_BOND_DEF_STEREO_COUNT>
0

> <PUBCHEM_BOND_UDEF_STEREO_COUNT>
0

> <PUBCHEM_ISOTOPIC_ATOM_COUNT>
0

> <PUBCHEM_COMPONENT_COUNT>
1

> <PUBCHEM_CACTVS_TAUTO_COUNT>
1

> <PUBCHEM_CONFORMER_ID>
00029ABF00000001

> <PUBCHEM_MMFF94_ENERGY>
29.0388

> <PUBCHEM_FEATURE_SELFOVERLAP>
10.148

> <PUBCHEM_SHAPE_FINGERPRINT>
10759866 29 18040439867456489334
108231 29 18272087227200421016
10922523 26 18201726201126395534
10967382 1 18266177223552013637
11132069 177 18411412917066526352
12382932 28 18412539907879218441
12500047 106 18193551177713593133
13140716 1 18193841663594299547
13618510 140 18337105653629370767
14178342 30 18266453200744453641
1420 336 18264771137169315707
14251705 54 18193279826132353139
14251711 518 18410284814000002171
14251745 187 18342735208866205664
15775835 57 18265339408597701233
16945 1 18412545413800295559
17357779 13 18268693078208414559
19107657 46 18409729521762071701
19930374 2 18044348583479127372
20388701 513 18268135621359818032
21160774 45 18334851667519349557
21249577 43 18411418414708866273
21634736 98 18264215870960113348
22721475 48 18411423942215920093
22802520 49 18128829559452102606
2334 1 17977948217452658311
23402539 116 18340194284818547086
23557571 272 17917150623437942159
23559900 14 18270403785748123750
238 59 16890581370168998957
2748010 2 18194406593453816975
2871803 45 18339354163508884421
2897 32 18335985393046242853
44154327 71 18048045073311078605
57005193 9 18336532833930878021
57483677 78 18335715904943375839
66348 1 18266177219431100161
8809292 202 18409732871704446962

> <PUBCHEM_SHAPE_MULTIPOLES>
302.82
5.58
2.94
0.92
0.45
0
0
-0.01
0
-1.56
0
0.28
0
0.22

> <PUBCHEM_SHAPE_SELFOVERLAP>
589.498

> <PUBCHEM_SHAPE_VOLUME>
182.3

> <PUBCHEM_COORDINATE_TYPE>
2
5
10

$$$$
