170948
  -OEChem-11232109483D

 35 34  0     1  0  0  0  0  0999 V2000
    1.2631   -0.2026    0.0338 O   0  0  0  0  0  0  0  0  0  0  0  0
   -1.5194   -0.4306   -0.2005 O   0  0  0  0  0  0  0  0  0  0  0  0
    2.9323   -0.4172   -1.5444 O   0  0  0  0  0  0  0  0  0  0  0  0
   -3.2940   -1.1161    1.1048 O   0  0  0  0  0  0  0  0  0  0  0  0
    0.6581   -1.4446   -0.3227 C   0  0  2  0  0  0  0  0  0  0  0  0
   -0.7242   -1.5032    0.3148 C   0  0  0  0  0  0  0  0  0  0  0  0
    1.5443   -2.5812    0.1640 C   0  0  0  0  0  0  0  0  0  0  0  0
    3.2929    0.8888    0.4754 C   0  0  0  0  0  0  0  0  0  0  0  0
    4.7107    1.1569   -0.0237 C   0  0  0  0  0  0  0  0  0  0  0  0
   -3.4947    0.8194   -0.3542 C   0  0  0  0  0  0  0  0  0  0  0  0
   -4.9392    0.9526    0.1217 C   0  0  0  0  0  0  0  0  0  0  0  0
    2.5111    0.0180   -0.4816 C   0  0  0  0  0  0  0  0  0  0  0  0
   -2.7940   -0.3572    0.2859 C   0  0  0  0  0  0  0  0  0  0  0  0
    5.4760    2.0594    0.9302 C   0  0  0  0  0  0  0  0  0  0  0  0
   -5.6232    2.1574   -0.5035 C   0  0  0  0  0  0  0  0  0  0  0  0
    0.5456   -1.4786   -1.4136 H   0  0  0  0  0  0  0  0  0  0  0  0
   -1.2104   -2.4582    0.0848 H   0  0  0  0  0  0  0  0  0  0  0  0
   -0.6435   -1.3830    1.4021 H   0  0  0  0  0  0  0  0  0  0  0  0
    3.3331    0.3812    1.4457 H   0  0  0  0  0  0  0  0  0  0  0  0
    2.7546    1.8364    0.5898 H   0  0  0  0  0  0  0  0  0  0  0  0
    1.7728   -2.4718    1.2303 H   0  0  0  0  0  0  0  0  0  0  0  0
    2.5024   -2.6175   -0.3629 H   0  0  0  0  0  0  0  0  0  0  0  0
    1.0548   -3.5489    0.0130 H   0  0  0  0  0  0  0  0  0  0  0  0
   -2.9357    1.7271   -0.1003 H   0  0  0  0  0  0  0  0  0  0  0  0
   -3.4758    0.6804   -1.4410 H   0  0  0  0  0  0  0  0  0  0  0  0
    4.6767    1.6257   -1.0145 H   0  0  0  0  0  0  0  0  0  0  0  0
    5.2509    0.2097   -0.1404 H   0  0  0  0  0  0  0  0  0  0  0  0
   -5.5007    0.0448   -0.1296 H   0  0  0  0  0  0  0  0  0  0  0  0
   -4.9664    1.0491    1.2138 H   0  0  0  0  0  0  0  0  0  0  0  0
    6.4883    2.2370    0.5541 H   0  0  0  0  0  0  0  0  0  0  0  0
    4.9786    3.0287    1.0375 H   0  0  0  0  0  0  0  0  0  0  0  0
    5.5572    1.6029    1.9218 H   0  0  0  0  0  0  0  0  0  0  0  0
   -6.6562    2.2327   -0.1498 H   0  0  0  0  0  0  0  0  0  0  0  0
   -5.1050    3.0844   -0.2382 H   0  0  0  0  0  0  0  0  0  0  0  0
   -5.6430    2.0745   -1.5949 H   0  0  0  0  0  0  0  0  0  0  0  0
  1  5  1  0  0  0  0
  1 12  1  0  0  0  0
  2  6  1  0  0  0  0
  2 13  1  0  0  0  0
  3 12  2  0  0  0  0
  4 13  2  0  0  0  0
  5  6  1  0  0  0  0
  5  7  1  0  0  0  0
  5 16  1  0  0  0  0
  6 17  1  0  0  0  0
  6 18  1  0  0  0  0
  7 21  1  0  0  0  0
  7 22  1  0  0  0  0
  7 23  1  0  0  0  0
  8  9  1  0  0  0  0
  8 12  1  0  0  0  0
  8 19  1  0  0  0  0
  8 20  1  0  0  0  0
  9 14  1  0  0  0  0
  9 26  1  0  0  0  0
  9 27  1  0  0  0  0
 10 11  1  0  0  0  0
 10 13  1  0  0  0  0
 10 24  1  0  0  0  0
 10 25  1  0  0  0  0
 11 15  1  0  0  0  0
 11 28  1  0  0  0  0
 11 29  1  0  0  0  0
 14 30  1  0  0  0  0
 14 31  1  0  0  0  0
 14 32  1  0  0  0  0
 15 33  1  0  0  0  0
 15 34  1  0  0  0  0
 15 35  1  0  0  0  0
M  END
> <PUBCHEM_COMPOUND_CID>
170948

> <PUBCHEM_CONFORMER_RMSD>
1

> <PUBCHEM_CONFORMER_DIVERSEORDER>
2
431
95
239
563
107
145
4
5
156
29
10
602
192
358
263
137
244
238
271
423
174
100
528
18
327
1
112
122
86
147
595
82
553
408
299
31
335
462
284
163
252
568
28
388
6
587
415
218
32
351
9
54
234
311
105
596
579
41
198
300
158
25
558
13
195
148
214
310
118
70
90
84
129
182
224
57
65
164
236
393
81
44
143
577
475
97
593
66
278
267
3
150
196
40
228
58
599
12
55
276
34
17
87
22
458
135
157
232
27
494
582
50
268
20
15
230
170
490
115
43

> <PUBCHEM_MMFF94_PARTIAL_CHARGES>
10
1 -0.43
10 0.06
12 0.66
13 0.66
2 -0.43
3 -0.57
4 -0.57
5 0.28
6 0.28
8 0.06

> <PUBCHEM_EFFECTIVE_ROTOR_COUNT>
9

> <PUBCHEM_PHARMACOPHORE_FEATURES>
4
1 14 hydrophobe
1 15 hydrophobe
1 3 acceptor
1 4 acceptor

> <PUBCHEM_HEAVY_ATOM_COUNT>
15

> <PUBCHEM_ATOM_DEF_STEREO_COUNT>
0

> <PUBCHEM_ATOM_UDEF_STEREO_COUNT>
1

> <PUBCHEM_BOND_DEF_STEREO_COUNT>
0

> <PUBCHEM_BOND_UDEF_STEREO_COUNT>
0

> <PUBCHEM_ISOTOPIC_ATOM_COUNT>
0

> <PUBCHEM_COMPONENT_COUNT>
1

> <PUBCHEM_CACTVS_TAUTO_COUNT>
1

> <PUBCHEM_CONFORMER_ID>
00029BC400000002

> <PUBCHEM_MMFF94_ENERGY>
12.8946

> <PUBCHEM_FEATURE_SELFOVERLAP>
20.298

> <PUBCHEM_SHAPE_FINGERPRINT>
10014705 185 18201438124726493269
12403259 118 17968381263637062229
12403259 415 18339093656446435506
12633257 1 16081090406599283000
12769317 202 18130498699849980600
13740256 8 9367347050188571704
13955234 65 18119251658329430043
14123255 352 18412261770123901248
14123255 52 18412544331521544374
14123256 34 10665220415771072648
14178000 22 18339922735622306462
1420 369 8574711299647627341
14251710 61 9511456723774313293
14251764 30 11458691765332509840
14252887 29 8358251515134644398
14455015 7 11025792093919184584
14576447 43 11743846863269246724
15061688 2 18342174501128533130
17834072 32 18338796844305346476
17870717 6 11240007745889330881
18186145 218 18130243617526216830
193927 3 10737280225600129216
19782 4 18410854373506710661
20605781 2 18342175583043670841
20621476 21 9799403473298098917
20645477 56 18057614359162275050
20645477 70 17845660252439570815
20871998 22 8862942762526493078
20871999 31 17131821114967941983
21452121 103 18261950739282838090
21618674 25 18334857186815906283
21713013 43 12103847834826938987
22765269 38 18341604928008805625
22926399 37 18060139817338824953
22959321 54 18340770321758754969
23016692 55 9727637240929181113
231179 274 18343586261094373042
23402539 116 18272081755960289644
23402655 69 17704355467665836069
23403322 49 9655306929263226961
23559900 14 17823149921099201839
23590187 49 18408882936610901021
270888 7 18411695495634041441
2838139 119 18272642459192595644
2916195 48 18271241741750671640
465052 167 8286191786339844617
5104073 3 18115032892600879315
5352402 22 13695854905882270376
59682541 52 16916800539335767524
77188 2 17618782458142101022

> <PUBCHEM_SHAPE_MULTIPOLES>
285.22
12.53
2.39
0.92
4.05
0.35
-0.09
-12.21
0.79
-0.59
0.27
-0.38
0.01
1.47

> <PUBCHEM_SHAPE_SELFOVERLAP>
535.567

> <PUBCHEM_SHAPE_VOLUME>
177.3

> <PUBCHEM_COORDINATE_TYPE>
2
5
10

$$$$
