1714993
  -OEChem-11232109433D

 36 36  0     1  0  0  0  0  0999 V2000
    2.0295    0.6421    0.0142 O   0  0  0  0  0  0  0  0  0  0  0  0
    3.3437    2.4712    0.0294 O   0  0  0  0  0  0  0  0  0  0  0  0
    1.8663   -0.7509   -0.3369 C   0  0  2  0  0  0  0  0  0  0  0  0
    0.5067   -1.1976    0.1834 C   0  0  0  0  0  0  0  0  0  0  0  0
    2.9820   -1.6246    0.2138 C   0  0  0  0  0  0  0  0  0  0  0  0
   -0.6150   -0.2989   -0.3370 C   0  0  0  0  0  0  0  0  0  0  0  0
   -1.9831   -0.7712    0.1607 C   0  0  0  0  0  0  0  0  0  0  0  0
    4.3072   -1.0412   -0.2314 C   0  0  0  0  0  0  0  0  0  0  0  0
   -3.0999    0.1526   -0.3304 C   0  0  0  0  0  0  0  0  0  0  0  0
    4.4420    0.3693    0.3030 C   0  0  0  0  0  0  0  0  0  0  0  0
   -4.4850   -0.2322    0.1973 C   0  0  0  0  0  0  0  0  0  0  0  0
    3.2404    1.2468    0.0629 C   0  0  0  0  0  0  0  0  0  0  0  0
   -5.5897    0.7335   -0.2336 C   0  0  0  0  0  0  0  0  0  0  0  0
   -6.9452    0.3010    0.3046 C   0  0  0  0  0  0  0  0  0  0  0  0
    1.8623   -0.8004   -1.4333 H   0  0  0  0  0  0  0  0  0  0  0  0
    0.3194   -2.2380   -0.1082 H   0  0  0  0  0  0  0  0  0  0  0  0
    0.5004   -1.1578    1.2803 H   0  0  0  0  0  0  0  0  0  0  0  0
    2.8784   -2.6544   -0.1453 H   0  0  0  0  0  0  0  0  0  0  0  0
    2.9472   -1.6490    1.3101 H   0  0  0  0  0  0  0  0  0  0  0  0
   -0.4570    0.7352   -0.0089 H   0  0  0  0  0  0  0  0  0  0  0  0
   -0.6068   -0.2957   -1.4338 H   0  0  0  0  0  0  0  0  0  0  0  0
   -2.1732   -1.7937   -0.1869 H   0  0  0  0  0  0  0  0  0  0  0  0
   -1.9860   -0.7956    1.2571 H   0  0  0  0  0  0  0  0  0  0  0  0
    4.3624   -1.0339   -1.3269 H   0  0  0  0  0  0  0  0  0  0  0  0
    5.1358   -1.6597    0.1307 H   0  0  0  0  0  0  0  0  0  0  0  0
   -3.1187    0.1499   -1.4273 H   0  0  0  0  0  0  0  0  0  0  0  0
   -2.8773    1.1815   -0.0207 H   0  0  0  0  0  0  0  0  0  0  0  0
    5.3123    0.8433   -0.1644 H   0  0  0  0  0  0  0  0  0  0  0  0
    4.6120    0.3446    1.3857 H   0  0  0  0  0  0  0  0  0  0  0  0
   -4.4519   -0.2726    1.2933 H   0  0  0  0  0  0  0  0  0  0  0  0
   -4.7297   -1.2441   -0.1489 H   0  0  0  0  0  0  0  0  0  0  0  0
   -5.6337    0.7818   -1.3277 H   0  0  0  0  0  0  0  0  0  0  0  0
   -5.3621    1.7430    0.1276 H   0  0  0  0  0  0  0  0  0  0  0  0
   -7.2150   -0.6934   -0.0650 H   0  0  0  0  0  0  0  0  0  0  0  0
   -6.9418    0.2722    1.3989 H   0  0  0  0  0  0  0  0  0  0  0  0
   -7.7210    1.0040   -0.0143 H   0  0  0  0  0  0  0  0  0  0  0  0
  1  3  1  0  0  0  0
  1 12  1  0  0  0  0
  2 12  2  0  0  0  0
  3  4  1  0  0  0  0
  3  5  1  0  0  0  0
  3 15  1  0  0  0  0
  4  6  1  0  0  0  0
  4 16  1  0  0  0  0
  4 17  1  0  0  0  0
  5  8  1  0  0  0  0
  5 18  1  0  0  0  0
  5 19  1  0  0  0  0
  6  7  1  0  0  0  0
  6 20  1  0  0  0  0
  6 21  1  0  0  0  0
  7  9  1  0  0  0  0
  7 22  1  0  0  0  0
  7 23  1  0  0  0  0
  8 10  1  0  0  0  0
  8 24  1  0  0  0  0
  8 25  1  0  0  0  0
  9 11  1  0  0  0  0
  9 26  1  0  0  0  0
  9 27  1  0  0  0  0
 10 12  1  0  0  0  0
 10 28  1  0  0  0  0
 10 29  1  0  0  0  0
 11 13  1  0  0  0  0
 11 30  1  0  0  0  0
 11 31  1  0  0  0  0
 13 14  1  0  0  0  0
 13 32  1  0  0  0  0
 13 33  1  0  0  0  0
 14 34  1  0  0  0  0
 14 35  1  0  0  0  0
 14 36  1  0  0  0  0
M  END
> <PUBCHEM_COMPOUND_CID>
1714993

> <PUBCHEM_CONFORMER_RMSD>
0.8

> <PUBCHEM_CONFORMER_DIVERSEORDER>
1
61
93
23
18
83
15
79
14
87
28
95
33
13
77
59
62
78
5
36
60
53
9
22
94
27
39
96
2
20
58
85
82
54
97
6
34
68
56
49
80
25
3
63
88
7
73
35
38
29
45
42
51
89
84
65
12
90
31
10
41
11
86
48
4
70
55
24
32
40
17
50
16
44
81
57
21
19
26
66
69
8
92
52
67
30
74
64
47
75
91
37
46
76
43
71
72

> <PUBCHEM_MMFF94_PARTIAL_CHARGES>
5
1 -0.43
10 0.06
12 0.66
2 -0.57
3 0.28

> <PUBCHEM_EFFECTIVE_ROTOR_COUNT>
7

> <PUBCHEM_PHARMACOPHORE_FEATURES>
5
1 14 hydrophobe
1 2 acceptor
3 4 6 7 hydrophobe
3 9 11 13 hydrophobe
6 1 3 5 8 10 12 rings

> <PUBCHEM_HEAVY_ATOM_COUNT>
14

> <PUBCHEM_ATOM_DEF_STEREO_COUNT>
1

> <PUBCHEM_ATOM_UDEF_STEREO_COUNT>
0

> <PUBCHEM_BOND_DEF_STEREO_COUNT>
0

> <PUBCHEM_BOND_UDEF_STEREO_COUNT>
0

> <PUBCHEM_ISOTOPIC_ATOM_COUNT>
0

> <PUBCHEM_COMPONENT_COUNT>
1

> <PUBCHEM_CACTVS_TAUTO_COUNT>
1

> <PUBCHEM_CONFORMER_ID>
001A2B3100000001

> <PUBCHEM_MMFF94_ENERGY>
9.3063

> <PUBCHEM_FEATURE_SELFOVERLAP>
25.384

> <PUBCHEM_SHAPE_FINGERPRINT>
10354089 29 18410575080373405866
11287383 113 18409731777131546691
11471102 20 18411699885707276702
13081056 2 18334574625175514101
13167372 99 18200879461804905777
13533116 47 17458618957170716611
1420 363 17967820436151807211
14251732 16 18337393850926433411
14252887 29 12540689289415988546
17834072 33 18272085020241020615
17834076 25 16732986410128337683
19433438 28 17894629228240044765
20281389 69 18261957341776804073
20645477 56 18186238429372707791
20645477 70 18342177717658605214
212847 35 18131068242414242033
22224240 67 8502359002824670974
23402539 116 18131625682562887159
23402655 69 18271804665913118702
23532345 1 18410577296571489907
23557571 272 16950845791697850047
29717793 49 17203334385782116580
351380 180 18409728452420489177
3545911 37 18407761434724254215
4047638 21 18411418410387817546
42788 4 18411419488830647839
5104073 3 18335698398868051363
522135 26 18411419492825058230
5374978 207 18259981561344517377
54446538 1 18343021060852733145
8272917 22 18272373031620282094

> <PUBCHEM_SHAPE_MULTIPOLES>
276.37
14.43
1.6
0.66
23.11
0.65
0
3.1
-0.91
-2.38
-0.05
0.07
-0.03
0.18

> <PUBCHEM_SHAPE_SELFOVERLAP>
526.77

> <PUBCHEM_SHAPE_VOLUME>
169.9

> <PUBCHEM_COORDINATE_TYPE>
2
5
10

$$$$
