1714996
  -OEChem-11232108433D

 30 30  0     1  0  0  0  0  0999 V2000
    1.0610   -0.6510   -0.0300 O   0  0  0  0  0  0  0  0  0  0  0  0
    2.5591   -2.3328   -0.0213 O   0  0  0  0  0  0  0  0  0  0  0  0
    0.7448    0.7147    0.3238 C   0  0  2  0  0  0  0  0  0  0  0  0
   -0.6410    1.0212   -0.2282 C   0  0  0  0  0  0  0  0  0  0  0  0
    1.7761    1.7042   -0.1945 C   0  0  0  0  0  0  0  0  0  0  0  0
   -1.6889    0.0526    0.3195 C   0  0  0  0  0  0  0  0  0  0  0  0
    3.1437    1.2588    0.2810 C   0  0  0  0  0  0  0  0  0  0  0  0
    3.4382   -0.1259   -0.2568 C   0  0  0  0  0  0  0  0  0  0  0  0
   -3.0845    0.3848   -0.2109 C   0  0  0  0  0  0  0  0  0  0  0  0
    2.3292   -1.1257   -0.0512 C   0  0  0  0  0  0  0  0  0  0  0  0
   -4.1274   -0.6039    0.3100 C   0  0  0  0  0  0  0  0  0  0  0  0
   -5.5104   -0.2970   -0.2416 C   0  0  0  0  0  0  0  0  0  0  0  0
    0.7105    0.7567    1.4200 H   0  0  0  0  0  0  0  0  0  0  0  0
   -0.6292    0.9395   -1.3226 H   0  0  0  0  0  0  0  0  0  0  0  0
   -0.9220    2.0513    0.0220 H   0  0  0  0  0  0  0  0  0  0  0  0
    1.5571    2.7149    0.1671 H   0  0  0  0  0  0  0  0  0  0  0  0
    1.7653    1.7330   -1.2911 H   0  0  0  0  0  0  0  0  0  0  0  0
   -1.4371   -0.9770    0.0388 H   0  0  0  0  0  0  0  0  0  0  0  0
   -1.6952    0.0966    1.4155 H   0  0  0  0  0  0  0  0  0  0  0  0
    3.1726    1.2491    1.3776 H   0  0  0  0  0  0  0  0  0  0  0  0
    3.9118    1.9630   -0.0570 H   0  0  0  0  0  0  0  0  0  0  0  0
    4.3417   -0.5100    0.2300 H   0  0  0  0  0  0  0  0  0  0  0  0
    3.6311   -0.0753   -1.3347 H   0  0  0  0  0  0  0  0  0  0  0  0
   -3.3604    1.4031    0.0889 H   0  0  0  0  0  0  0  0  0  0  0  0
   -3.0747    0.3623   -1.3075 H   0  0  0  0  0  0  0  0  0  0  0  0
   -3.8475   -1.6253    0.0264 H   0  0  0  0  0  0  0  0  0  0  0  0
   -4.1594   -0.5685    1.4052 H   0  0  0  0  0  0  0  0  0  0  0  0
   -5.8347    0.7072    0.0494 H   0  0  0  0  0  0  0  0  0  0  0  0
   -6.2405   -1.0151    0.1446 H   0  0  0  0  0  0  0  0  0  0  0  0
   -5.5195   -0.3580   -1.3346 H   0  0  0  0  0  0  0  0  0  0  0  0
  1  3  1  0  0  0  0
  1 10  1  0  0  0  0
  2 10  2  0  0  0  0
  3  4  1  0  0  0  0
  3  5  1  0  0  0  0
  3 13  1  0  0  0  0
  4  6  1  0  0  0  0
  4 14  1  0  0  0  0
  4 15  1  0  0  0  0
  5  7  1  0  0  0  0
  5 16  1  0  0  0  0
  5 17  1  0  0  0  0
  6  9  1  0  0  0  0
  6 18  1  0  0  0  0
  6 19  1  0  0  0  0
  7  8  1  0  0  0  0
  7 20  1  0  0  0  0
  7 21  1  0  0  0  0
  8 10  1  0  0  0  0
  8 22  1  0  0  0  0
  8 23  1  0  0  0  0
  9 11  1  0  0  0  0
  9 24  1  0  0  0  0
  9 25  1  0  0  0  0
 11 12  1  0  0  0  0
 11 26  1  0  0  0  0
 11 27  1  0  0  0  0
 12 28  1  0  0  0  0
 12 29  1  0  0  0  0
 12 30  1  0  0  0  0
M  END
> <PUBCHEM_COMPOUND_CID>
1714996

> <PUBCHEM_CONFORMER_RMSD>
0.6

> <PUBCHEM_CONFORMER_DIVERSEORDER>
1
52
46
60
13
14
58
5
61
24
62
17
4
63
10
54
45
3
53
33
30
23
64
57
18
51
9
36
39
15
50
31
47
29
56
8
27
59
34
42
7
48
25
26
16
55
19
37
28
35
22
11
20
2
40
44
41
6
12
43
49
32
38
21

> <PUBCHEM_MMFF94_PARTIAL_CHARGES>
5
1 -0.43
10 0.66
2 -0.57
3 0.28
8 0.06

> <PUBCHEM_EFFECTIVE_ROTOR_COUNT>
5

> <PUBCHEM_PHARMACOPHORE_FEATURES>
4
1 12 hydrophobe
1 2 acceptor
4 4 6 9 11 hydrophobe
6 1 3 5 7 8 10 rings

> <PUBCHEM_HEAVY_ATOM_COUNT>
12

> <PUBCHEM_ATOM_DEF_STEREO_COUNT>
1

> <PUBCHEM_ATOM_UDEF_STEREO_COUNT>
0

> <PUBCHEM_BOND_DEF_STEREO_COUNT>
0

> <PUBCHEM_BOND_UDEF_STEREO_COUNT>
0

> <PUBCHEM_ISOTOPIC_ATOM_COUNT>
0

> <PUBCHEM_COMPONENT_COUNT>
1

> <PUBCHEM_CACTVS_TAUTO_COUNT>
1

> <PUBCHEM_CONFORMER_ID>
001A2B3400000001

> <PUBCHEM_MMFF94_ENERGY>
9.2871

> <PUBCHEM_FEATURE_SELFOVERLAP>
20.297

> <PUBCHEM_SHAPE_FINGERPRINT>
11471102 20 18410575114812460404
11987891 38 18410576202008859539
12346645 6 18341613741270718916
12616999 72 18187092771049718180
12932764 1 17489576879492450785
13167823 11 18130785703008425975
14251717 144 18410856564066840067
14252887 29 18261116287625522257
15375462 189 17988918994235160921
15477762 27 18409731742291539428
17834072 33 18272086149875240343
17834074 16 18336269032797441923
18186145 218 17749104461872689793
20201158 50 18334017193896294106
20279233 1 18040721385113672491
20645477 70 18411134715134697559
20871998 22 18127977399749918734
212847 35 11169911688879406287
21501925 9 18411411783136982200
22485316 2 18413105083063393023
23402539 116 17240754129424267869
23402655 69 18411698794553546533
23557571 272 17385715881593235429
2871803 45 18261392221878149383
33824 294 18408884053107446682
522135 26 18411418410477248005
581208 293 18410572920099931488
77779 3 18410576180597346033
94968 8 18409733928467102214

> <PUBCHEM_SHAPE_MULTIPOLES>
235.22
9.04
1.65
0.66
12.7
0.52
0.01
1.58
-0.38
-1.92
-0.04
0.06
-0.04
0.17

> <PUBCHEM_SHAPE_SELFOVERLAP>
451.432

> <PUBCHEM_SHAPE_VOLUME>
144

> <PUBCHEM_COORDINATE_TYPE>
2
5
10

$$$$
