172501
  -OEChem-11232109043D

 36 35  0     1  0  0  0  0  0999 V2000
   -4.6431   -0.8122    0.9158 O   0  0  0  0  0  0  0  0  0  0  0  0
    1.2894    0.9858   -0.2766 C   0  0  1  0  0  0  0  0  0  0  0  0
    2.6863    0.6354    0.2880 C   0  0  0  0  0  0  0  0  0  0  0  0
    0.1721    0.1689    0.4061 C   0  0  0  0  0  0  0  0  0  0  0  0
    3.1269   -0.8374    0.1639 C   0  0  0  0  0  0  0  0  0  0  0  0
   -1.2275    0.4573   -0.1488 C   0  0  0  0  0  0  0  0  0  0  0  0
   -2.3323   -0.3337    0.5587 C   0  0  0  0  0  0  0  0  0  0  0  0
    1.0622    2.4958   -0.1249 C   0  0  0  0  0  0  0  0  0  0  0  0
   -3.7636   -0.0348    0.1015 C   0  0  1  0  0  0  0  0  0  0  0  0
    3.1168   -1.3325   -1.2826 C   0  0  0  0  0  0  0  0  0  0  0  0
    4.5293   -1.0062    0.7573 C   0  0  0  0  0  0  0  0  0  0  0  0
   -4.0164   -0.3865   -1.3584 C   0  0  0  0  0  0  0  0  0  0  0  0
    1.2794    0.7643   -1.3507 H   0  0  0  0  0  0  0  0  0  0  0  0
    2.7181    0.9204    1.3484 H   0  0  0  0  0  0  0  0  0  0  0  0
    3.4323    1.2639   -0.2176 H   0  0  0  0  0  0  0  0  0  0  0  0
    0.3647   -0.9022    0.2810 H   0  0  0  0  0  0  0  0  0  0  0  0
    0.1825    0.3686    1.4851 H   0  0  0  0  0  0  0  0  0  0  0  0
    2.4510   -1.4693    0.7511 H   0  0  0  0  0  0  0  0  0  0  0  0
   -1.2349    0.2295   -1.2205 H   0  0  0  0  0  0  0  0  0  0  0  0
   -1.4636    1.5212   -0.0427 H   0  0  0  0  0  0  0  0  0  0  0  0
   -2.1362   -1.4087    0.4477 H   0  0  0  0  0  0  0  0  0  0  0  0
   -2.2659   -0.1434    1.6385 H   0  0  0  0  0  0  0  0  0  0  0  0
    1.9102    3.0599   -0.5287 H   0  0  0  0  0  0  0  0  0  0  0  0
    0.9412    2.7756    0.9270 H   0  0  0  0  0  0  0  0  0  0  0  0
    0.1754    2.8258   -0.6739 H   0  0  0  0  0  0  0  0  0  0  0  0
   -4.0029    1.0214    0.2674 H   0  0  0  0  0  0  0  0  0  0  0  0
    3.7324   -0.6938   -1.9249 H   0  0  0  0  0  0  0  0  0  0  0  0
    2.1018   -1.3512   -1.6905 H   0  0  0  0  0  0  0  0  0  0  0  0
    3.5091   -2.3533   -1.3464 H   0  0  0  0  0  0  0  0  0  0  0  0
    4.8433   -2.0548    0.7211 H   0  0  0  0  0  0  0  0  0  0  0  0
    5.2683   -0.4125    0.2085 H   0  0  0  0  0  0  0  0  0  0  0  0
    4.5490   -0.6890    1.8053 H   0  0  0  0  0  0  0  0  0  0  0  0
   -3.7803   -1.4382   -1.5540 H   0  0  0  0  0  0  0  0  0  0  0  0
   -3.4271    0.2389   -2.0345 H   0  0  0  0  0  0  0  0  0  0  0  0
   -5.0760   -0.2528   -1.6027 H   0  0  0  0  0  0  0  0  0  0  0  0
   -4.5180   -0.5289    1.8376 H   0  0  0  0  0  0  0  0  0  0  0  0
  1  9  1  0  0  0  0
  1 36  1  0  0  0  0
  2  3  1  0  0  0  0
  2  4  1  0  0  0  0
  2  8  1  0  0  0  0
  2 13  1  0  0  0  0
  3  5  1  0  0  0  0
  3 14  1  0  0  0  0
  3 15  1  0  0  0  0
  4  6  1  0  0  0  0
  4 16  1  0  0  0  0
  4 17  1  0  0  0  0
  5 10  1  0  0  0  0
  5 11  1  0  0  0  0
  5 18  1  0  0  0  0
  6  7  1  0  0  0  0
  6 19  1  0  0  0  0
  6 20  1  0  0  0  0
  7  9  1  0  0  0  0
  7 21  1  0  0  0  0
  7 22  1  0  0  0  0
  8 23  1  0  0  0  0
  8 24  1  0  0  0  0
  8 25  1  0  0  0  0
  9 12  1  0  0  0  0
  9 26  1  0  0  0  0
 10 27  1  0  0  0  0
 10 28  1  0  0  0  0
 10 29  1  0  0  0  0
 11 30  1  0  0  0  0
 11 31  1  0  0  0  0
 11 32  1  0  0  0  0
 12 33  1  0  0  0  0
 12 34  1  0  0  0  0
 12 35  1  0  0  0  0
M  END
> <PUBCHEM_COMPOUND_CID>
172501

> <PUBCHEM_CONFORMER_RMSD>
0.6

> <PUBCHEM_CONFORMER_DIVERSEORDER>
1
24
58
62
34
59
26
6
13
51
15
32
38
35
20
57
42
10
49
9
55
47
17
5
61
41
18
52
60
25
50
8
3
29
22
31
39
19
40
11
30
45
46
36
23
4
27
37
33
43
56
21
2
53
28
7
12
54
14
16
48
44

> <PUBCHEM_MMFF94_PARTIAL_CHARGES>
3
1 -0.68
36 0.4
9 0.28

> <PUBCHEM_EFFECTIVE_ROTOR_COUNT>
6

> <PUBCHEM_PHARMACOPHORE_FEATURES>
6
1 1 acceptor
1 1 donor
1 8 hydrophobe
3 2 3 5 hydrophobe
3 4 6 7 hydrophobe
3 5 10 11 hydrophobe

> <PUBCHEM_HEAVY_ATOM_COUNT>
12

> <PUBCHEM_ATOM_DEF_STEREO_COUNT>
0

> <PUBCHEM_ATOM_UDEF_STEREO_COUNT>
2

> <PUBCHEM_BOND_DEF_STEREO_COUNT>
0

> <PUBCHEM_BOND_UDEF_STEREO_COUNT>
0

> <PUBCHEM_ISOTOPIC_ATOM_COUNT>
0

> <PUBCHEM_COMPONENT_COUNT>
1

> <PUBCHEM_CACTVS_TAUTO_COUNT>
1

> <PUBCHEM_CONFORMER_ID>
0002A1D500000001

> <PUBCHEM_MMFF94_ENERGY>
13.0014

> <PUBCHEM_FEATURE_SELFOVERLAP>
30.844

> <PUBCHEM_SHAPE_FINGERPRINT>
11543360 7 15213312944741655379
11987891 27 17489863860579928557
12032990 46 18334014977651010169
12932764 1 17240472659196114345
13675066 3 17846503616960789891
14251717 144 18343579642265323278
14252887 29 18273217465551486674
15477762 27 18411983593608025892
15775835 57 8430310243001486808
17041 50 17748818635825369141
177051 138 17846782892518625422
18186145 218 17676481774692802881
1986462 14 17458062664611515703
20339313 130 18411142449843270361
20432913 95 17989207036153940395
20645477 70 18409451418207990406
20671657 53 18260268542369405913
20871998 22 18271530780380808412
21119208 17 15140682453848856090
21501925 9 18342453729805654128
22485316 2 18114177540667459482
23402539 116 18341603781157143844
32948 21 17168133499612583805
42 15 17561085791262895595
4990 188 13118285845662557898
573450 72 16702021968157095047
581208 293 18060418010744308470
7364860 26 18269558402391860336
81539 233 18044661034382696700
94968 8 18409174290223557926

> <PUBCHEM_SHAPE_MULTIPOLES>
241.09
9.36
1.64
1.07
5.04
1.05
0.23
-4.75
-0.61
-1.34
0.23
0.28
-0.34
0.19

> <PUBCHEM_SHAPE_SELFOVERLAP>
433.8

> <PUBCHEM_SHAPE_VOLUME>
156.9

> <PUBCHEM_COORDINATE_TYPE>
2
5
10

$$$$
