172843
  -OEChem-11232111213D

 24 24  0     1  0  0  0  0  0999 V2000
   -1.5504    0.1776    0.0319 O   0  0  0  0  0  0  0  0  0  0  0  0
   -1.3223    2.4168    0.0170 O   0  0  0  0  0  0  0  0  0  0  0  0
    1.3185   -0.1237   -0.0092 C   0  0  0  0  0  0  0  0  0  0  0  0
    0.3973   -1.3109   -0.3130 C   0  0  0  0  0  0  0  0  0  0  0  0
    0.6274    1.1445   -0.5153 C   0  0  0  0  0  0  0  0  0  0  0  0
   -0.9747   -1.1162    0.3177 C   0  0  2  0  0  0  0  0  0  0  0  0
    1.6245   -0.0080    1.4954 C   0  0  0  0  0  0  0  0  0  0  0  0
    2.6506   -0.3140   -0.7569 C   0  0  0  0  0  0  0  0  0  0  0  0
   -0.8115    1.3041   -0.0922 C   0  0  0  0  0  0  0  0  0  0  0  0
   -1.9595   -2.1701   -0.1754 C   0  0  0  0  0  0  0  0  0  0  0  0
    0.8413   -2.2510    0.0374 H   0  0  0  0  0  0  0  0  0  0  0  0
    0.2838   -1.4016   -1.4022 H   0  0  0  0  0  0  0  0  0  0  0  0
    0.6266    1.1673   -1.6127 H   0  0  0  0  0  0  0  0  0  0  0  0
    1.1794    2.0286   -0.1724 H   0  0  0  0  0  0  0  0  0  0  0  0
   -0.9118   -1.2028    1.4083 H   0  0  0  0  0  0  0  0  0  0  0  0
    0.7325    0.2239    2.0856 H   0  0  0  0  0  0  0  0  0  0  0  0
    2.3510    0.7903    1.6869 H   0  0  0  0  0  0  0  0  0  0  0  0
    2.0485   -0.9414    1.8822 H   0  0  0  0  0  0  0  0  0  0  0  0
    3.3216    0.5368   -0.5927 H   0  0  0  0  0  0  0  0  0  0  0  0
    2.4926   -0.4072   -1.8374 H   0  0  0  0  0  0  0  0  0  0  0  0
    3.1674   -1.2189   -0.4179 H   0  0  0  0  0  0  0  0  0  0  0  0
   -1.6052   -3.1814    0.0462 H   0  0  0  0  0  0  0  0  0  0  0  0
   -2.9370   -2.0308    0.2991 H   0  0  0  0  0  0  0  0  0  0  0  0
   -2.1203   -2.0814   -1.2555 H   0  0  0  0  0  0  0  0  0  0  0  0
  1  6  1  0  0  0  0
  1  9  1  0  0  0  0
  2  9  2  0  0  0  0
  3  4  1  0  0  0  0
  3  5  1  0  0  0  0
  3  7  1  0  0  0  0
  3  8  1  0  0  0  0
  4  6  1  0  0  0  0
  4 11  1  0  0  0  0
  4 12  1  0  0  0  0
  5  9  1  0  0  0  0
  5 13  1  0  0  0  0
  5 14  1  0  0  0  0
  6 10  1  0  0  0  0
  6 15  1  0  0  0  0
  7 16  1  0  0  0  0
  7 17  1  0  0  0  0
  7 18  1  0  0  0  0
  8 19  1  0  0  0  0
  8 20  1  0  0  0  0
  8 21  1  0  0  0  0
 10 22  1  0  0  0  0
 10 23  1  0  0  0  0
 10 24  1  0  0  0  0
M  END
> <PUBCHEM_COMPOUND_CID>
172843

> <PUBCHEM_CONFORMER_RMSD>
0.4

> <PUBCHEM_CONFORMER_DIVERSEORDER>
2
4
3
5
1

> <PUBCHEM_MMFF94_PARTIAL_CHARGES>
5
1 -0.43
2 -0.57
5 0.06
6 0.28
9 0.66

> <PUBCHEM_EFFECTIVE_ROTOR_COUNT>
1

> <PUBCHEM_PHARMACOPHORE_FEATURES>
3
1 2 acceptor
3 3 7 8 hydrophobe
6 1 3 4 5 6 9 rings

> <PUBCHEM_HEAVY_ATOM_COUNT>
10

> <PUBCHEM_ATOM_DEF_STEREO_COUNT>
0

> <PUBCHEM_ATOM_UDEF_STEREO_COUNT>
1

> <PUBCHEM_BOND_DEF_STEREO_COUNT>
0

> <PUBCHEM_BOND_UDEF_STEREO_COUNT>
0

> <PUBCHEM_ISOTOPIC_ATOM_COUNT>
0

> <PUBCHEM_COMPONENT_COUNT>
1

> <PUBCHEM_CACTVS_TAUTO_COUNT>
1

> <PUBCHEM_CONFORMER_ID>
0002A32B00000002

> <PUBCHEM_MMFF94_ENERGY>
23.7606

> <PUBCHEM_FEATURE_SELFOVERLAP>
15.223

> <PUBCHEM_SHAPE_FINGERPRINT>
12423570 1 8163123814898967244
12716758 59 18268998579232204478
14817 1 17618447321341938481
16945 1 18410855430089783978
18185500 45 18120375620667373223
20645477 70 17257927625299891799
20653091 64 17614279292052570555
20711985 344 18410009940071306547
21040471 1 18122058706744732004
21922407 69 16443353026737202768
21930827 45 18270957930179675200
23235685 24 18121219775025329548
23552423 10 18187935027074366430
2748010 2 18195807590237017767
5084963 1 18202285753718013306

> <PUBCHEM_SHAPE_MULTIPOLES>
194.06
2.77
2.16
0.95
0.24
1.14
0.29
-1.34
-0.21
-1.22
-0.19
0.54
-0.12
0.01

> <PUBCHEM_SHAPE_SELFOVERLAP>
383.563

> <PUBCHEM_SHAPE_VOLUME>
115.8

> <PUBCHEM_COORDINATE_TYPE>
2
5
10

$$$$
