173535
  -OEChem-11232109423D

 27 26  0     0  0  0  0  0  0999 V2000
   -0.3998   -0.0734   -0.4091 O   0  0  0  0  0  0  0  0  0  0  0  0
   -1.8033    1.5307    0.4721 O   0  0  0  0  0  0  0  0  0  0  0  0
   -2.6874   -0.6184   -0.2542 C   0  0  0  0  0  0  0  0  0  0  0  0
   -2.8221   -1.5132    0.9721 C   0  0  0  0  0  0  0  0  0  0  0  0
   -4.0182    0.0483   -0.5934 C   0  0  0  0  0  0  0  0  0  0  0  0
   -1.6093    0.4235   -0.0126 C   0  0  0  0  0  0  0  0  0  0  0  0
    0.7167    0.8035   -0.2276 C   0  0  0  0  0  0  0  0  0  0  0  0
    3.0885   -0.1283   -0.0082 C   0  0  0  0  0  0  0  0  0  0  0  0
    1.9642    0.1276   -0.7035 C   0  0  0  0  0  0  0  0  0  0  0  0
    4.2507   -0.8206   -0.6705 C   0  0  0  0  0  0  0  0  0  0  0  0
    3.3199    0.2205    1.4348 C   0  0  0  0  0  0  0  0  0  0  0  0
   -2.3918   -1.2244   -1.1198 H   0  0  0  0  0  0  0  0  0  0  0  0
   -3.5772   -2.2891    0.8096 H   0  0  0  0  0  0  0  0  0  0  0  0
   -3.1101   -0.9346    1.8569 H   0  0  0  0  0  0  0  0  0  0  0  0
   -1.8715   -2.0078    1.1995 H   0  0  0  0  0  0  0  0  0  0  0  0
   -4.7797   -0.7017   -0.8311 H   0  0  0  0  0  0  0  0  0  0  0  0
   -3.9108    0.7100   -1.4596 H   0  0  0  0  0  0  0  0  0  0  0  0
   -4.3876    0.6546    0.2412 H   0  0  0  0  0  0  0  0  0  0  0  0
    0.5602    1.7050   -0.8319 H   0  0  0  0  0  0  0  0  0  0  0  0
    0.7678    1.0991    0.8227 H   0  0  0  0  0  0  0  0  0  0  0  0
    1.9314   -0.1776   -1.7489 H   0  0  0  0  0  0  0  0  0  0  0  0
    5.1394   -0.1815   -0.6403 H   0  0  0  0  0  0  0  0  0  0  0  0
    4.4785   -1.7580   -0.1525 H   0  0  0  0  0  0  0  0  0  0  0  0
    4.0513   -1.0618   -1.7199 H   0  0  0  0  0  0  0  0  0  0  0  0
    4.1840    0.8875    1.5247 H   0  0  0  0  0  0  0  0  0  0  0  0
    2.4747    0.7198    1.9111 H   0  0  0  0  0  0  0  0  0  0  0  0
    3.5268   -0.6878    2.0109 H   0  0  0  0  0  0  0  0  0  0  0  0
  1  6  1  0  0  0  0
  1  7  1  0  0  0  0
  2  6  2  0  0  0  0
  3  4  1  0  0  0  0
  3  5  1  0  0  0  0
  3  6  1  0  0  0  0
  3 12  1  0  0  0  0
  4 13  1  0  0  0  0
  4 14  1  0  0  0  0
  4 15  1  0  0  0  0
  5 16  1  0  0  0  0
  5 17  1  0  0  0  0
  5 18  1  0  0  0  0
  7  9  1  0  0  0  0
  7 19  1  0  0  0  0
  7 20  1  0  0  0  0
  8  9  2  0  0  0  0
  8 10  1  0  0  0  0
  8 11  1  0  0  0  0
  9 21  1  0  0  0  0
 10 22  1  0  0  0  0
 10 23  1  0  0  0  0
 10 24  1  0  0  0  0
 11 25  1  0  0  0  0
 11 26  1  0  0  0  0
 11 27  1  0  0  0  0
M  END
> <PUBCHEM_COMPOUND_CID>
173535

> <PUBCHEM_CONFORMER_RMSD>
0.6

> <PUBCHEM_CONFORMER_DIVERSEORDER>
1
95
101
43
59
86
45
85
88
22
91
11
24
31
51
92
10
94
20
38
2
70
98
4
69
80
30
87
17
9
32
84
61
29
79
48
47
65
42
37
60
83
64
81
33
75
23
13
90
7
44
16
36
89
67
62
76
63
40
82
103
100
54
52
19
78
96
53
50
99
35
3
27
18
34
93
97
15
21
14
26
46
39
68
58
73
77
57
71
102
41
55
5
28
56
6
49
72
66
74
8
12
25

> <PUBCHEM_MMFF94_PARTIAL_CHARGES>
10
1 -0.43
10 0.14
11 0.14
2 -0.57
21 0.15
3 0.06
6 0.66
7 0.42
8 -0.28
9 -0.29

> <PUBCHEM_EFFECTIVE_ROTOR_COUNT>
4

> <PUBCHEM_PHARMACOPHORE_FEATURES>
3
1 2 acceptor
3 3 4 5 hydrophobe
3 8 10 11 hydrophobe

> <PUBCHEM_HEAVY_ATOM_COUNT>
11

> <PUBCHEM_ATOM_DEF_STEREO_COUNT>
0

> <PUBCHEM_ATOM_UDEF_STEREO_COUNT>
0

> <PUBCHEM_BOND_DEF_STEREO_COUNT>
0

> <PUBCHEM_BOND_UDEF_STEREO_COUNT>
0

> <PUBCHEM_ISOTOPIC_ATOM_COUNT>
0

> <PUBCHEM_COMPONENT_COUNT>
1

> <PUBCHEM_CACTVS_TAUTO_COUNT>
1

> <PUBCHEM_CONFORMER_ID>
0002A5DF00000001

> <PUBCHEM_MMFF94_ENERGY>
9.7805

> <PUBCHEM_FEATURE_SELFOVERLAP>
15.223

> <PUBCHEM_SHAPE_FINGERPRINT>
11062470 55 15502375621141359102
11715629 250 10015865362339080778
12162725 195 14405188382426744602
12932764 1 17275384304993158828
13296908 3 18131068216997872364
14251710 61 17969515959616179091
14252887 29 16558192593307449670
15775835 57 16515402971385726474
177051 138 18410857689369325198
18342897 55 13912322412666999088
190213 19 18334576849894583886
19107657 162 18410014359719397586
20211469 26 18201719543974143749
20279233 1 18131633391385683103
20281407 28 18273217525142770159
20528008 55 17418086646106956375
20645477 70 17846495894530659254
21119208 17 17240199932598378167
21293036 1 12107787419111569559
22485316 2 17385437739431654230
23402539 116 18410847755895979549
23402655 69 15430309218204797470
3248919 1 18408610257442356644
57812782 119 18272930526996281466
58051976 100 16950566614264949951
93112 12 17023186062796701607

> <PUBCHEM_SHAPE_MULTIPOLES>
214.64
8.21
1.17
1.05
2.03
0.17
-0.24
1.98
0.51
-0.82
-0.23
0.65
0.07
0.36

> <PUBCHEM_SHAPE_SELFOVERLAP>
399.533

> <PUBCHEM_SHAPE_VOLUME>
135.9

> <PUBCHEM_COORDINATE_TYPE>
2
5
10

$$$$
