173536
  -OEChem-11232108453D

 39 39  0     0  0  0  0  0  0999 V2000
    0.8134   -0.4362    1.9334 O   0  0  0  0  0  0  0  0  0  0  0  0
   -1.6688   -1.0781   -0.0786 C   0  0  0  0  0  0  0  0  0  0  0  0
   -3.1415   -0.6166   -0.2553 C   0  0  0  0  0  0  0  0  0  0  0  0
   -0.7426    0.1036    0.2938 C   0  0  0  0  0  0  0  0  0  0  0  0
   -3.2490    0.6670   -1.0588 C   0  0  0  0  0  0  0  0  0  0  0  0
   -2.5012    1.7880   -0.3528 C   0  0  0  0  0  0  0  0  0  0  0  0
   -1.1415    1.3963    0.1896 C   0  0  0  0  0  0  0  0  0  0  0  0
   -1.1817   -1.7207   -1.3976 C   0  0  0  0  0  0  0  0  0  0  0  0
   -1.6928   -2.1685    1.0205 C   0  0  0  0  0  0  0  0  0  0  0  0
    0.5930   -0.2601    0.7380 C   0  0  0  0  0  0  0  0  0  0  0  0
   -0.3247    2.6064    0.5805 C   0  0  0  0  0  0  0  0  0  0  0  0
    1.6485   -0.3976   -0.3422 C   0  0  0  0  0  0  0  0  0  0  0  0
    3.0429   -0.0245    0.1584 C   0  0  0  0  0  0  0  0  0  0  0  0
    4.0820   -0.1332   -0.9566 C   0  0  0  0  0  0  0  0  0  0  0  0
    5.4640    0.2743   -0.4722 C   0  0  0  0  0  0  0  0  0  0  0  0
   -3.6024   -0.4491    0.7284 H   0  0  0  0  0  0  0  0  0  0  0  0
   -3.7362   -1.4013   -0.7397 H   0  0  0  0  0  0  0  0  0  0  0  0
   -4.3015    0.9473   -1.1811 H   0  0  0  0  0  0  0  0  0  0  0  0
   -2.8443    0.5212   -2.0672 H   0  0  0  0  0  0  0  0  0  0  0  0
   -3.1090    2.1570    0.4834 H   0  0  0  0  0  0  0  0  0  0  0  0
   -2.3939    2.6209   -1.0588 H   0  0  0  0  0  0  0  0  0  0  0  0
   -0.9899   -0.9701   -2.1722 H   0  0  0  0  0  0  0  0  0  0  0  0
   -0.2650   -2.3002   -1.2553 H   0  0  0  0  0  0  0  0  0  0  0  0
   -1.9281   -2.4200   -1.7929 H   0  0  0  0  0  0  0  0  0  0  0  0
   -2.4114   -2.9593    0.7749 H   0  0  0  0  0  0  0  0  0  0  0  0
   -0.7148   -2.6483    1.1386 H   0  0  0  0  0  0  0  0  0  0  0  0
   -1.9767   -1.7467    1.9917 H   0  0  0  0  0  0  0  0  0  0  0  0
   -0.1279    3.2306   -0.2972 H   0  0  0  0  0  0  0  0  0  0  0  0
    0.6409    2.3396    1.0191 H   0  0  0  0  0  0  0  0  0  0  0  0
   -0.8657    3.2044    1.3213 H   0  0  0  0  0  0  0  0  0  0  0  0
    1.6579   -1.4387   -0.6790 H   0  0  0  0  0  0  0  0  0  0  0  0
    1.3837    0.2382   -1.1949 H   0  0  0  0  0  0  0  0  0  0  0  0
    3.3264   -0.6789    0.9920 H   0  0  0  0  0  0  0  0  0  0  0  0
    3.0269    0.9987    0.5540 H   0  0  0  0  0  0  0  0  0  0  0  0
    4.1194   -1.1626   -1.3314 H   0  0  0  0  0  0  0  0  0  0  0  0
    3.7946    0.5083   -1.7979 H   0  0  0  0  0  0  0  0  0  0  0  0
    6.1914    0.1880   -1.2854 H   0  0  0  0  0  0  0  0  0  0  0  0
    5.7961   -0.3672    0.3503 H   0  0  0  0  0  0  0  0  0  0  0  0
    5.4672    1.3115   -0.1223 H   0  0  0  0  0  0  0  0  0  0  0  0
  1 10  2  0  0  0  0
  2  3  1  0  0  0  0
  2  4  1  0  0  0  0
  2  8  1  0  0  0  0
  2  9  1  0  0  0  0
  3  5  1  0  0  0  0
  3 16  1  0  0  0  0
  3 17  1  0  0  0  0
  4  7  2  0  0  0  0
  4 10  1  0  0  0  0
  5  6  1  0  0  0  0
  5 18  1  0  0  0  0
  5 19  1  0  0  0  0
  6  7  1  0  0  0  0
  6 20  1  0  0  0  0
  6 21  1  0  0  0  0
  7 11  1  0  0  0  0
  8 22  1  0  0  0  0
  8 23  1  0  0  0  0
  8 24  1  0  0  0  0
  9 25  1  0  0  0  0
  9 26  1  0  0  0  0
  9 27  1  0  0  0  0
 10 12  1  0  0  0  0
 11 28  1  0  0  0  0
 11 29  1  0  0  0  0
 11 30  1  0  0  0  0
 12 13  1  0  0  0  0
 12 31  1  0  0  0  0
 12 32  1  0  0  0  0
 13 14  1  0  0  0  0
 13 33  1  0  0  0  0
 13 34  1  0  0  0  0
 14 15  1  0  0  0  0
 14 35  1  0  0  0  0
 14 36  1  0  0  0  0
 15 37  1  0  0  0  0
 15 38  1  0  0  0  0
 15 39  1  0  0  0  0
M  END
> <PUBCHEM_COMPOUND_CID>
173536

> <PUBCHEM_CONFORMER_RMSD>
0.6

> <PUBCHEM_CONFORMER_DIVERSEORDER>
2
20
24
11
21
23
6
9
12
5
14
19
15
10
22
8
13
18
16
1
17
7
4
3

> <PUBCHEM_MMFF94_PARTIAL_CHARGES>
8
1 -0.57
10 0.49
11 0.14
12 0.06
2 0.14
4 -0.12
6 0.14
7 -0.28

> <PUBCHEM_EFFECTIVE_ROTOR_COUNT>
4.8

> <PUBCHEM_PHARMACOPHORE_FEATURES>
4
1 1 acceptor
1 15 hydrophobe
3 2 8 9 hydrophobe
6 2 3 4 5 6 7 rings

> <PUBCHEM_HEAVY_ATOM_COUNT>
15

> <PUBCHEM_ATOM_DEF_STEREO_COUNT>
0

> <PUBCHEM_ATOM_UDEF_STEREO_COUNT>
0

> <PUBCHEM_BOND_DEF_STEREO_COUNT>
0

> <PUBCHEM_BOND_UDEF_STEREO_COUNT>
0

> <PUBCHEM_ISOTOPIC_ATOM_COUNT>
0

> <PUBCHEM_COMPONENT_COUNT>
1

> <PUBCHEM_CACTVS_TAUTO_COUNT>
8

> <PUBCHEM_CONFORMER_ID>
0002A5E000000002

> <PUBCHEM_MMFF94_ENERGY>
23.7199

> <PUBCHEM_FEATURE_SELFOVERLAP>
20.297

> <PUBCHEM_SHAPE_FINGERPRINT>
12186901 62 18410014312326694151
13024252 1 17458349658352254387
14123260 362 17603883190900653084
15775835 57 17531246115142435332
16945 1 18268968978539042535
17134986 127 17257938087365048820
1813 80 13901916635133741976
18186145 218 17531519996970355572
18534176 82 18413394224018773782
19765921 60 17458058240283595840
20300324 65 18411421709096722364
20645476 183 17967526857482489663
20871999 31 18411130346994286389
21339142 51 18410014381025071774
22802520 49 18202003170639902682
23402539 116 18342452612866302548
23493267 7 18335137570517554499
23557571 272 18272098197111039884
23559900 14 18413386515422701162
2748010 2 17976803609058612563
4028521 119 18335699416922954068
4175511 318 18408604747036161524
559249 180 18194962938412720942

> <PUBCHEM_SHAPE_MULTIPOLES>
302.82
7.07
2.11
1.24
11.91
0.64
0.18
0.35
-2.64
-1.85
0.24
-0.09
-0.36
0.23

> <PUBCHEM_SHAPE_SELFOVERLAP>
596.918

> <PUBCHEM_SHAPE_VOLUME>
181.7

> <PUBCHEM_COORDINATE_TYPE>
2
5
10

$$$$
