1738122
  -OEChem-11232109253D

 38 38  0     1  0  0  0  0  0999 V2000
   -0.1520   -3.4567   -0.9913 O   0  0  0  0  0  0  0  0  0  0  0  0
   -2.6505    2.0732   -1.0249 O   0  0  0  0  0  0  0  0  0  0  0  0
   -2.3635    1.9180    1.2592 O   0  0  0  0  0  0  0  0  0  0  0  0
   -0.7966   -0.4579    0.7996 C   0  0  2  0  0  0  0  0  0  0  0  0
    0.2439   -1.5409    0.4501 C   0  0  2  0  0  0  0  0  0  0  0  0
   -2.0811   -1.2688    1.0147 C   0  0  0  0  0  0  0  0  0  0  0  0
    1.4508   -1.0787   -0.3442 C   0  0  0  0  0  0  0  0  0  0  0  0
   -2.0774   -2.3284   -0.0820 C   0  0  0  0  0  0  0  0  0  0  0  0
   -0.6028   -2.5541   -0.2972 C   0  0  0  0  0  0  0  0  0  0  0  0
   -0.9906    0.6187   -0.2702 C   0  0  0  0  0  0  0  0  0  0  0  0
    2.3030   -0.0880    0.4509 C   0  0  0  0  0  0  0  0  0  0  0  0
    3.5371    0.3488   -0.3402 C   0  0  0  0  0  0  0  0  0  0  0  0
   -2.0660    1.6005    0.1159 C   0  0  0  0  0  0  0  0  0  0  0  0
    4.3691    1.3641    0.4430 C   0  0  0  0  0  0  0  0  0  0  0  0
    5.5788    1.8259   -0.3537 C   0  0  0  0  0  0  0  0  0  0  0  0
   -3.7022    3.0241   -0.8298 C   0  0  0  0  0  0  0  0  0  0  0  0
   -0.5153    0.0321    1.7406 H   0  0  0  0  0  0  0  0  0  0  0  0
    0.5679   -2.0370    1.3749 H   0  0  0  0  0  0  0  0  0  0  0  0
   -3.0037   -0.6824    1.0020 H   0  0  0  0  0  0  0  0  0  0  0  0
   -2.0321   -1.7644    1.9934 H   0  0  0  0  0  0  0  0  0  0  0  0
    1.1521   -0.6454   -1.3062 H   0  0  0  0  0  0  0  0  0  0  0  0
    2.0677   -1.9512   -0.5967 H   0  0  0  0  0  0  0  0  0  0  0  0
   -2.5221   -1.9526   -1.0075 H   0  0  0  0  0  0  0  0  0  0  0  0
   -2.5735   -3.2462    0.2411 H   0  0  0  0  0  0  0  0  0  0  0  0
   -1.2598    0.1551   -1.2268 H   0  0  0  0  0  0  0  0  0  0  0  0
   -0.0828    1.2064   -0.4312 H   0  0  0  0  0  0  0  0  0  0  0  0
    1.7236    0.7971    0.7305 H   0  0  0  0  0  0  0  0  0  0  0  0
    2.6257   -0.5595    1.3877 H   0  0  0  0  0  0  0  0  0  0  0  0
    4.1524   -0.5273   -0.5785 H   0  0  0  0  0  0  0  0  0  0  0  0
    3.2221    0.7918   -1.2930 H   0  0  0  0  0  0  0  0  0  0  0  0
    3.7535    2.2352    0.6958 H   0  0  0  0  0  0  0  0  0  0  0  0
    4.7063    0.9200    1.3868 H   0  0  0  0  0  0  0  0  0  0  0  0
    6.2329    0.9827   -0.5977 H   0  0  0  0  0  0  0  0  0  0  0  0
    6.1600    2.5502    0.2254 H   0  0  0  0  0  0  0  0  0  0  0  0
    5.2729    2.3058   -1.2888 H   0  0  0  0  0  0  0  0  0  0  0  0
   -4.0809    3.3185   -1.8123 H   0  0  0  0  0  0  0  0  0  0  0  0
   -3.3190    3.9133   -0.3201 H   0  0  0  0  0  0  0  0  0  0  0  0
   -4.5195    2.5728   -0.2592 H   0  0  0  0  0  0  0  0  0  0  0  0
  1  9  2  0  0  0  0
  2 13  1  0  0  0  0
  2 16  1  0  0  0  0
  3 13  2  0  0  0  0
  4  5  1  0  0  0  0
  4  6  1  0  0  0  0
  4 10  1  0  0  0  0
  4 17  1  0  0  0  0
  5  7  1  0  0  0  0
  5  9  1  0  0  0  0
  5 18  1  0  0  0  0
  6  8  1  0  0  0  0
  6 19  1  0  0  0  0
  6 20  1  0  0  0  0
  7 11  1  0  0  0  0
  7 21  1  0  0  0  0
  7 22  1  0  0  0  0
  8  9  1  0  0  0  0
  8 23  1  0  0  0  0
  8 24  1  0  0  0  0
 10 13  1  0  0  0  0
 10 25  1  0  0  0  0
 10 26  1  0  0  0  0
 11 12  1  0  0  0  0
 11 27  1  0  0  0  0
 11 28  1  0  0  0  0
 12 14  1  0  0  0  0
 12 29  1  0  0  0  0
 12 30  1  0  0  0  0
 14 15  1  0  0  0  0
 14 31  1  0  0  0  0
 14 32  1  0  0  0  0
 15 33  1  0  0  0  0
 15 34  1  0  0  0  0
 15 35  1  0  0  0  0
 16 36  1  0  0  0  0
 16 37  1  0  0  0  0
 16 38  1  0  0  0  0
M  END
> <PUBCHEM_COMPOUND_CID>
1738122

> <PUBCHEM_CONFORMER_RMSD>
0.8

> <PUBCHEM_CONFORMER_DIVERSEORDER>
1
56
49
40
13
78
39
58
36
86
9
68
41
24
84
26
77
51
67
5
14
53
62
18
23
70
57
59
7
8
48
74
55
16
81
82
33
72
6
10
66
45
50
37
42
64
80
20
73
60
69
4
31
44
79
75
32
52
27
46
61
30
35
71
54
19
21
85
29
34
11
43
63
83
3
2
65
38
22
28
25
12
76
47
15
17

> <PUBCHEM_MMFF94_PARTIAL_CHARGES>
9
1 -0.57
10 0.06
13 0.66
16 0.28
2 -0.43
3 -0.57
5 0.06
8 0.06
9 0.45

> <PUBCHEM_EFFECTIVE_ROTOR_COUNT>
7.8

> <PUBCHEM_PHARMACOPHORE_FEATURES>
5
1 1 acceptor
1 15 hydrophobe
1 3 acceptor
4 7 11 12 14 hydrophobe
5 4 5 6 8 9 rings

> <PUBCHEM_HEAVY_ATOM_COUNT>
16

> <PUBCHEM_ATOM_DEF_STEREO_COUNT>
2

> <PUBCHEM_ATOM_UDEF_STEREO_COUNT>
0

> <PUBCHEM_BOND_DEF_STEREO_COUNT>
0

> <PUBCHEM_BOND_UDEF_STEREO_COUNT>
0

> <PUBCHEM_ISOTOPIC_ATOM_COUNT>
0

> <PUBCHEM_COMPONENT_COUNT>
1

> <PUBCHEM_CACTVS_TAUTO_COUNT>
3

> <PUBCHEM_CONFORMER_ID>
001A858A00000001

> <PUBCHEM_MMFF94_ENERGY>
18.3974

> <PUBCHEM_FEATURE_SELFOVERLAP>
25.372

> <PUBCHEM_SHAPE_FINGERPRINT>
10871710 139 18043539519384047876
12107183 9 18117261581459392696
122479 349 18260547792864131264
14123255 52 18336262323773909788
14142880 1 18113890593670389997
14250199 8 17621034266497468621
14508225 48 17695898217456697103
14614273 12 18200041758066133434
17134986 127 18193835946903228990
1741750 31 18412824664416626280
17834072 32 18408042888379635404
204376 136 18337954484958902945
20510252 161 18341899640158813618
20645477 56 18342468079396735784
20671657 1 18120657924873627866
21029758 27 17905896125326599619
21339142 126 18194683893801755370
21499 59 18267296539284904901
21524375 3 18191299390552032178
2255824 54 17549254836100888175
23402539 116 17985547998727324863
23419403 2 16771242959476078787
23557571 272 18129114479704533172
23558518 356 18186805794289116130
23559900 14 18130231442175050278
27216 239 18260272970623074224
2748010 2 18267321857927243166
3268164 11 18200031892847559940
43658 37 18264765450675086717
474 4 18124308303293299377
559249 180 18409445865896912882
6327066 14 18261386720189269204
633830 44 17771355175283446473
68521 5 18266174131022943607
81228 2 18266187320862254538
84936 182 17910664367721771848

> <PUBCHEM_SHAPE_MULTIPOLES>
311.66
7.72
3.82
1
13.36
0.23
-0.07
-8.01
0.62
-4.05
1.17
-0.47
-0.08
0.54

> <PUBCHEM_SHAPE_SELFOVERLAP>
610.934

> <PUBCHEM_SHAPE_VOLUME>
188.7

> <PUBCHEM_COORDINATE_TYPE>
2
5
10

$$$$
