173843
  -OEChem-11232108403D

 30 31  0     1  0  0  0  0  0999 V2000
   -0.4349    1.3950   -0.4929 O   0  0  0  0  0  0  0  0  0  0  0  0
    1.1827    2.8758    0.2123 O   0  0  0  0  0  0  0  0  0  0  0  0
   -0.5116   -0.0329   -0.6801 C   0  0  1  0  0  0  0  0  0  0  0  0
    0.8449   -0.4902   -0.3118 C   0  0  0  0  0  0  0  0  0  0  0  0
   -1.6151   -0.5848    0.2072 C   0  0  0  0  0  0  0  0  0  0  0  0
    1.3210   -1.9045   -0.3441 C   0  0  0  0  0  0  0  0  0  0  0  0
    1.6178    0.5288    0.0521 C   0  0  0  0  0  0  0  0  0  0  0  0
   -2.9934   -0.1059   -0.2487 C   0  0  0  0  0  0  0  0  0  0  0  0
    2.8277   -2.0650   -0.0202 C   0  0  0  0  0  0  0  0  0  0  0  0
    0.8122    1.7448   -0.0488 C   0  0  0  0  0  0  0  0  0  0  0  0
   -4.1028   -0.6906    0.6252 C   0  0  0  0  0  0  0  0  0  0  0  0
    2.9766    0.3923    0.4627 C   0  0  0  0  0  0  0  0  0  0  0  0
    3.5523   -0.8193    0.4331 C   0  0  0  0  0  0  0  0  0  0  0  0
   -5.4774   -0.2434    0.1540 C   0  0  0  0  0  0  0  0  0  0  0  0
   -0.7130   -0.2291   -1.7393 H   0  0  0  0  0  0  0  0  0  0  0  0
   -1.4594   -0.2690    1.2471 H   0  0  0  0  0  0  0  0  0  0  0  0
   -1.5957   -1.6814    0.1915 H   0  0  0  0  0  0  0  0  0  0  0  0
    0.7428   -2.4948    0.3771 H   0  0  0  0  0  0  0  0  0  0  0  0
    1.1226   -2.3355   -1.3328 H   0  0  0  0  0  0  0  0  0  0  0  0
   -3.0417    0.9890   -0.2122 H   0  0  0  0  0  0  0  0  0  0  0  0
   -3.1571   -0.4013   -1.2924 H   0  0  0  0  0  0  0  0  0  0  0  0
    3.3409   -2.4501   -0.9104 H   0  0  0  0  0  0  0  0  0  0  0  0
    2.9404   -2.8346    0.7533 H   0  0  0  0  0  0  0  0  0  0  0  0
   -3.9594   -0.3794    1.6665 H   0  0  0  0  0  0  0  0  0  0  0  0
   -4.0562   -1.7857    0.6043 H   0  0  0  0  0  0  0  0  0  0  0  0
    3.5280    1.2662    0.7886 H   0  0  0  0  0  0  0  0  0  0  0  0
    4.5895   -0.9243    0.7379 H   0  0  0  0  0  0  0  0  0  0  0  0
   -5.6651   -0.5691   -0.8741 H   0  0  0  0  0  0  0  0  0  0  0  0
   -5.5693    0.8468    0.1915 H   0  0  0  0  0  0  0  0  0  0  0  0
   -6.2553   -0.6721    0.7934 H   0  0  0  0  0  0  0  0  0  0  0  0
  1  3  1  0  0  0  0
  1 10  1  0  0  0  0
  2 10  2  0  0  0  0
  3  4  1  0  0  0  0
  3  5  1  0  0  0  0
  3 15  1  0  0  0  0
  4  6  1  0  0  0  0
  4  7  2  0  0  0  0
  5  8  1  0  0  0  0
  5 16  1  0  0  0  0
  5 17  1  0  0  0  0
  6  9  1  0  0  0  0
  6 18  1  0  0  0  0
  6 19  1  0  0  0  0
  7 10  1  0  0  0  0
  7 12  1  0  0  0  0
  8 11  1  0  0  0  0
  8 20  1  0  0  0  0
  8 21  1  0  0  0  0
  9 13  1  0  0  0  0
  9 22  1  0  0  0  0
  9 23  1  0  0  0  0
 11 14  1  0  0  0  0
 11 24  1  0  0  0  0
 11 25  1  0  0  0  0
 12 13  2  0  0  0  0
 12 26  1  0  0  0  0
 13 27  1  0  0  0  0
 14 28  1  0  0  0  0
 14 29  1  0  0  0  0
 14 30  1  0  0  0  0
M  END
> <PUBCHEM_COMPOUND_CID>
173843

> <PUBCHEM_CONFORMER_RMSD>
0.6

> <PUBCHEM_CONFORMER_DIVERSEORDER>
2
10
4
9
8
3
12
7
1
11
5
6

> <PUBCHEM_MMFF94_PARTIAL_CHARGES>
12
1 -0.43
10 0.71
12 -0.15
13 -0.29
2 -0.57
26 0.15
27 0.15
3 0.42
4 -0.28
6 0.14
7 0.01
9 0.14

> <PUBCHEM_EFFECTIVE_ROTOR_COUNT>
3.8

> <PUBCHEM_PHARMACOPHORE_FEATURES>
4
1 14 hydrophobe
1 2 acceptor
5 1 3 4 7 10 rings
6 4 6 7 9 12 13 rings

> <PUBCHEM_HEAVY_ATOM_COUNT>
14

> <PUBCHEM_ATOM_DEF_STEREO_COUNT>
0

> <PUBCHEM_ATOM_UDEF_STEREO_COUNT>
1

> <PUBCHEM_BOND_DEF_STEREO_COUNT>
0

> <PUBCHEM_BOND_UDEF_STEREO_COUNT>
0

> <PUBCHEM_ISOTOPIC_ATOM_COUNT>
0

> <PUBCHEM_COMPONENT_COUNT>
1

> <PUBCHEM_CACTVS_TAUTO_COUNT>
1

> <PUBCHEM_CONFORMER_ID>
0002A71300000002

> <PUBCHEM_MMFF94_ENERGY>
10.9018

> <PUBCHEM_FEATURE_SELFOVERLAP>
20.37

> <PUBCHEM_SHAPE_FINGERPRINT>
10219947 1 18413388739313946686
11471102 20 18410290332937564391
12032990 46 18337954480737639310
12251169 10 18343020016874863319
12346645 6 18341051912192966036
13140716 1 18122898991516184552
13922767 16 18410574002927373865
14115302 16 17095534997383296123
14251717 144 18411136944006478663
14252887 29 18271811181231157682
15375462 478 17989488498477617505
15442244 35 18340774732695416729
15501101 241 18333731346722036461
16945 1 18339911710403749908
193761 8 17690273133744579502
20559304 39 18341619234523587689
20645477 70 18335135436430530599
20871998 22 18270123392185455718
21501925 9 18411136922520728923
23402539 116 18059848455711285261
2748010 2 18196918990687755580
4047638 21 10952047857586625638
42 15 18408044005260542723
54173680 148 17690560784678617862
7364860 26 18339926025218757768

> <PUBCHEM_SHAPE_MULTIPOLES>
276.37
7.68
2.12
0.74
11.66
0.95
0
-2.75
-1.59
-1.9
0.02
0.05
-0.04
0.25

> <PUBCHEM_SHAPE_SELFOVERLAP>
573.851

> <PUBCHEM_SHAPE_VOLUME>
159.3

> <PUBCHEM_COORDINATE_TYPE>
2
5
10

$$$$
