174845
  -OEChem-11232108593D

 42 44  0     1  0  0  0  0  0999 V2000
   -1.0785    0.3262    1.3672 O   0  0  0  0  0  0  0  0  0  0  0  0
    2.2679    0.1466    0.2053 C   0  0  2  0  0  0  0  0  0  0  0  0
    0.7677   -1.5030    0.1527 C   0  0  2  0  0  0  0  0  0  0  0  0
    0.0538   -0.3696   -0.6215 C   0  0  2  0  0  0  0  0  0  0  0  0
    1.5536   -0.7444    1.2252 C   0  0  0  0  0  0  0  0  0  0  0  0
    1.0740    0.7864   -0.5390 C   0  0  0  0  0  0  0  0  0  0  0  0
    2.9303   -0.8997   -0.7168 C   0  0  0  0  0  0  0  0  0  0  0  0
    1.9067   -2.0451   -0.7302 C   0  0  0  0  0  0  0  0  0  0  0  0
   -1.2972    0.0055   -0.0098 C   0  0  0  0  0  0  0  0  0  0  0  0
    3.2369    1.1537    0.7855 C   0  0  0  0  0  0  0  0  0  0  0  0
   -2.2632   -1.1877   -0.0705 C   0  0  0  0  0  0  0  0  0  0  0  0
   -1.8947    1.2306   -0.7207 C   0  0  0  0  0  0  0  0  0  0  0  0
   -3.6584   -0.8320    0.4464 C   0  0  0  0  0  0  0  0  0  0  0  0
   -3.2897    1.5793   -0.1996 C   0  0  0  0  0  0  0  0  0  0  0  0
    3.9235    1.9702   -0.2994 C   0  0  0  0  0  0  0  0  0  0  0  0
   -4.2326    0.3830   -0.2750 C   0  0  0  0  0  0  0  0  0  0  0  0
    0.1381   -2.3064    0.5329 H   0  0  0  0  0  0  0  0  0  0  0  0
   -0.0974   -0.6573   -1.6704 H   0  0  0  0  0  0  0  0  0  0  0  0
    0.9824   -0.1912    1.9685 H   0  0  0  0  0  0  0  0  0  0  0  0
    2.2486   -1.3979    1.7671 H   0  0  0  0  0  0  0  0  0  0  0  0
    1.3512    1.1270   -1.5430 H   0  0  0  0  0  0  0  0  0  0  0  0
    0.7160    1.6587    0.0146 H   0  0  0  0  0  0  0  0  0  0  0  0
    3.8838   -1.2560   -0.3098 H   0  0  0  0  0  0  0  0  0  0  0  0
    3.1128   -0.5183   -1.7270 H   0  0  0  0  0  0  0  0  0  0  0  0
    1.5770   -2.2939   -1.7437 H   0  0  0  0  0  0  0  0  0  0  0  0
    2.3463   -2.9458   -0.2862 H   0  0  0  0  0  0  0  0  0  0  0  0
    4.0011    0.6404    1.3818 H   0  0  0  0  0  0  0  0  0  0  0  0
    2.7133    1.8330    1.4690 H   0  0  0  0  0  0  0  0  0  0  0  0
   -1.9117   -2.0214    0.5451 H   0  0  0  0  0  0  0  0  0  0  0  0
   -2.3469   -1.5517   -1.1022 H   0  0  0  0  0  0  0  0  0  0  0  0
   -1.9579    1.0383   -1.7995 H   0  0  0  0  0  0  0  0  0  0  0  0
   -1.2746    2.1236   -0.5900 H   0  0  0  0  0  0  0  0  0  0  0  0
   -3.6145   -0.6306    1.5238 H   0  0  0  0  0  0  0  0  0  0  0  0
   -4.3285   -1.6889    0.3121 H   0  0  0  0  0  0  0  0  0  0  0  0
   -3.7027    2.4084   -0.7855 H   0  0  0  0  0  0  0  0  0  0  0  0
   -3.2219    1.9280    0.8381 H   0  0  0  0  0  0  0  0  0  0  0  0
    4.5119    1.3397   -0.9726 H   0  0  0  0  0  0  0  0  0  0  0  0
    3.2047    2.5407   -0.8949 H   0  0  0  0  0  0  0  0  0  0  0  0
    4.6112    2.6884    0.1598 H   0  0  0  0  0  0  0  0  0  0  0  0
   -4.4164    0.1293   -1.3263 H   0  0  0  0  0  0  0  0  0  0  0  0
   -5.2013    0.6485    0.1632 H   0  0  0  0  0  0  0  0  0  0  0  0
   -0.7871    1.2504    1.4360 H   0  0  0  0  0  0  0  0  0  0  0  0
  1  9  1  0  0  0  0
  1 42  1  0  0  0  0
  2  5  1  0  0  0  0
  2  6  1  0  0  0  0
  2  7  1  0  0  0  0
  2 10  1  0  0  0  0
  3  4  1  0  0  0  0
  3  5  1  0  0  0  0
  3  8  1  0  0  0  0
  3 17  1  0  0  0  0
  4  6  1  0  0  0  0
  4  9  1  0  0  0  0
  4 18  1  0  0  0  0
  5 19  1  0  0  0  0
  5 20  1  0  0  0  0
  6 21  1  0  0  0  0
  6 22  1  0  0  0  0
  7  8  1  0  0  0  0
  7 23  1  0  0  0  0
  7 24  1  0  0  0  0
  8 25  1  0  0  0  0
  8 26  1  0  0  0  0
  9 11  1  0  0  0  0
  9 12  1  0  0  0  0
 10 15  1  0  0  0  0
 10 27  1  0  0  0  0
 10 28  1  0  0  0  0
 11 13  1  0  0  0  0
 11 29  1  0  0  0  0
 11 30  1  0  0  0  0
 12 14  1  0  0  0  0
 12 31  1  0  0  0  0
 12 32  1  0  0  0  0
 13 16  1  0  0  0  0
 13 33  1  0  0  0  0
 13 34  1  0  0  0  0
 14 16  1  0  0  0  0
 14 35  1  0  0  0  0
 14 36  1  0  0  0  0
 15 37  1  0  0  0  0
 15 38  1  0  0  0  0
 15 39  1  0  0  0  0
 16 40  1  0  0  0  0
 16 41  1  0  0  0  0
M  END
> <PUBCHEM_COMPOUND_CID>
174845

> <PUBCHEM_CONFORMER_RMSD>
0.6

> <PUBCHEM_CONFORMER_DIVERSEORDER>
4
13
11
18
8
10
5
3
17
16
15
12
2
9
7
14
6
1

> <PUBCHEM_MMFF94_PARTIAL_CHARGES>
3
1 -0.68
42 0.4
9 0.28

> <PUBCHEM_EFFECTIVE_ROTOR_COUNT>
4.2

> <PUBCHEM_PHARMACOPHORE_FEATURES>
5
1 1 acceptor
1 1 donor
1 15 hydrophobe
6 9 11 12 13 14 16 rings
7 2 3 4 5 6 7 8 rings

> <PUBCHEM_HEAVY_ATOM_COUNT>
16

> <PUBCHEM_ATOM_DEF_STEREO_COUNT>
0

> <PUBCHEM_ATOM_UDEF_STEREO_COUNT>
3

> <PUBCHEM_BOND_DEF_STEREO_COUNT>
0

> <PUBCHEM_BOND_UDEF_STEREO_COUNT>
0

> <PUBCHEM_ISOTOPIC_ATOM_COUNT>
0

> <PUBCHEM_COMPONENT_COUNT>
1

> <PUBCHEM_CACTVS_TAUTO_COUNT>
1

> <PUBCHEM_CONFORMER_ID>
0002AAFD00000004

> <PUBCHEM_MMFF94_ENERGY>
53.3788

> <PUBCHEM_FEATURE_SELFOVERLAP>
25.371

> <PUBCHEM_SHAPE_FINGERPRINT>
10608611 8 18337951195135163133
10646746 165 18333729087537700436
107287 299 18060702801056008894
10922049 32 18339082700411839086
10980938 120 18341891891984972808
11031198 65 18060698403257177220
11132069 177 18113335323461397973
11471102 20 18272931613623000902
11715629 250 18261387828205701117
12932764 1 17750234708017267751
13134695 92 17058635271517693938
13296908 3 18409450258851657095
13571099 52 18186517704772053992
13581323 91 14779546798574431257
14144814 61 18260828151270391323
14178342 30 17022907852185046731
14289901 80 18201433666961909707
14415576 193 18411139130097099892
15219456 202 18412545392420489167
15375358 24 18187359943917292587
15375462 6 18341613698252552133
15536298 74 18411983546215601796
15775835 57 18341612663228737196
16945 1 18338232803044817958
170605 34 18408319999537022448
18175812 5 18409730638342708199
18186145 218 18263924337328055845
200 152 17774997951847906743
20510252 161 18412546492523090777
20525323 117 18335975458734133247
20645477 56 18188492372406884749
20645477 70 18059292067676926647
20671657 53 17842568340212242182
21501502 16 18410566267353800023
21524375 3 18337669845076299520
21730867 7 18413671305201697074
22854114 111 18202280303546933016
23114952 82 18271535178147784020
23402539 116 17968647350041428255
23557571 272 18262241135428927043
23559900 14 18269267967849379154
2748010 2 18336266751705454335
296302 2 18335419093002467337
474 4 17822295742213743508
5104073 3 18335422335829383753
58051976 378 18341046406055474701
6333272 397 18188209917718493096
633830 44 18268705014123009557
69090 78 18410005508276856983
7364860 26 18342738468910147430
74978 22 18196656198433731819
8030462 33 16988562372786728666
81539 233 18410009961915219886
9709674 26 18410014334160752799

> <PUBCHEM_SHAPE_MULTIPOLES>
323.4
7.02
1.89
1
2.79
0.03
-0.17
2.44
0.11
-0.96
0.26
-0.27
-0.06
0.47

> <PUBCHEM_SHAPE_SELFOVERLAP>
683.471

> <PUBCHEM_SHAPE_VOLUME>
186.1

> <PUBCHEM_COORDINATE_TYPE>
2
5
10

$$$$
