175170
  -OEChem-11232109463D

 26 26  0     0  0  0  0  0  0999 V2000
    1.5056    0.5976    0.0040 O   0  0  0  0  0  0  0  0  0  0  0  0
   -1.8439   -0.7989   -0.0026 N   0  0  0  0  0  0  0  0  0  0  0  0
    0.8380   -1.6196    0.0009 N   0  0  0  0  0  0  0  0  0  0  0  0
   -1.1932    1.5303    0.0011 C   0  0  0  0  0  0  0  0  0  0  0  0
   -0.8204    0.0594   -0.0008 C   0  0  0  0  0  0  0  0  0  0  0  0
   -1.9752    1.9111    1.2608 C   0  0  0  0  0  0  0  0  0  0  0  0
   -1.9701    1.9158   -1.2602 C   0  0  0  0  0  0  0  0  0  0  0  0
    0.4902   -0.3174    0.0009 C   0  0  0  0  0  0  0  0  0  0  0  0
    2.8342    0.0846    0.0056 C   0  0  0  0  0  0  0  0  0  0  0  0
   -1.4962   -2.1011   -0.0026 C   0  0  0  0  0  0  0  0  0  0  0  0
   -0.1788   -2.5042   -0.0008 C   0  0  0  0  0  0  0  0  0  0  0  0
    3.8097    1.2422   -0.0062 C   0  0  0  0  0  0  0  0  0  0  0  0
   -0.2851    2.1452    0.0041 H   0  0  0  0  0  0  0  0  0  0  0  0
   -2.9345    1.3845    1.3163 H   0  0  0  0  0  0  0  0  0  0  0  0
   -2.1819    2.9866    1.2784 H   0  0  0  0  0  0  0  0  0  0  0  0
   -1.4061    1.6629    2.1636 H   0  0  0  0  0  0  0  0  0  0  0  0
   -1.3972    1.6712   -2.1616 H   0  0  0  0  0  0  0  0  0  0  0  0
   -2.1770    2.9913   -1.2745 H   0  0  0  0  0  0  0  0  0  0  0  0
   -2.9290    1.3892   -1.3217 H   0  0  0  0  0  0  0  0  0  0  0  0
    3.0043   -0.5179    0.9058 H   0  0  0  0  0  0  0  0  0  0  0  0
    3.0023   -0.5320   -0.8856 H   0  0  0  0  0  0  0  0  0  0  0  0
   -2.3127   -2.8124   -0.0041 H   0  0  0  0  0  0  0  0  0  0  0  0
    0.0998   -3.5507   -0.0008 H   0  0  0  0  0  0  0  0  0  0  0  0
    4.8428    0.8836   -0.0052 H   0  0  0  0  0  0  0  0  0  0  0  0
    3.6540    1.8687   -0.8907 H   0  0  0  0  0  0  0  0  0  0  0  0
    3.6574    1.8836    0.8683 H   0  0  0  0  0  0  0  0  0  0  0  0
  1  8  1  0  0  0  0
  1  9  1  0  0  0  0
  2  5  2  0  0  0  0
  2 10  1  0  0  0  0
  3  8  2  0  0  0  0
  3 11  1  0  0  0  0
  4  5  1  0  0  0  0
  4  6  1  0  0  0  0
  4  7  1  0  0  0  0
  4 13  1  0  0  0  0
  5  8  1  0  0  0  0
  6 14  1  0  0  0  0
  6 15  1  0  0  0  0
  6 16  1  0  0  0  0
  7 17  1  0  0  0  0
  7 18  1  0  0  0  0
  7 19  1  0  0  0  0
  9 12  1  0  0  0  0
  9 20  1  0  0  0  0
  9 21  1  0  0  0  0
 10 11  2  0  0  0  0
 10 22  1  0  0  0  0
 11 23  1  0  0  0  0
 12 24  1  0  0  0  0
 12 25  1  0  0  0  0
 12 26  1  0  0  0  0
M  END
> <PUBCHEM_COMPOUND_CID>
175170

> <PUBCHEM_CONFORMER_RMSD>
0.6

> <PUBCHEM_CONFORMER_DIVERSEORDER>
1
8
7
4
5
3
6
2

> <PUBCHEM_MMFF94_PARTIAL_CHARGES>
11
1 -0.36
10 0.16
11 0.16
2 -0.62
22 0.15
23 0.15
3 -0.62
4 0.14
5 0.17
8 0.39
9 0.28

> <PUBCHEM_EFFECTIVE_ROTOR_COUNT>
3

> <PUBCHEM_PHARMACOPHORE_FEATURES>
3
1 2 acceptor
3 4 6 7 hydrophobe
6 2 3 5 8 10 11 rings

> <PUBCHEM_HEAVY_ATOM_COUNT>
12

> <PUBCHEM_ATOM_DEF_STEREO_COUNT>
0

> <PUBCHEM_ATOM_UDEF_STEREO_COUNT>
0

> <PUBCHEM_BOND_DEF_STEREO_COUNT>
0

> <PUBCHEM_BOND_UDEF_STEREO_COUNT>
0

> <PUBCHEM_ISOTOPIC_ATOM_COUNT>
0

> <PUBCHEM_COMPONENT_COUNT>
1

> <PUBCHEM_CACTVS_TAUTO_COUNT>
2

> <PUBCHEM_CONFORMER_ID>
0002AC4200000001

> <PUBCHEM_MMFF94_ENERGY>
29.3219

> <PUBCHEM_FEATURE_SELFOVERLAP>
15.223

> <PUBCHEM_SHAPE_FINGERPRINT>
1 1 18048880688862119606
100427 49 17548131589914005286
13024252 1 15574985225734941235
13380535 76 18338507522032658143
14614273 12 18334852814180425061
14648413 74 17398393022775264657
14817 1 12513943080427813625
16945 1 18262786501374846598
193761 8 18338517413469357063
20510252 161 18341332313717912304
20871998 184 18127982007965049270
21524375 3 18339919303684311528
220403 375 18116420449735207725
228727 97 17701800125734796173
23402539 116 18199179779435851543
23559900 14 18200324209086948406
241688 4 17977661240538627707
2748010 2 18265623090955688470
6333449 129 18411980282341351380
81228 2 18265342891768796618

> <PUBCHEM_SHAPE_MULTIPOLES>
231.12
4.13
2.79
0.88
4.95
1.09
0
-2.61
0
-1.44
0
-0.57
-0.53
0

> <PUBCHEM_SHAPE_SELFOVERLAP>
463.781

> <PUBCHEM_SHAPE_VOLUME>
137.3

> <PUBCHEM_COORDINATE_TYPE>
2
5
10

$$$$
