175273
  -OEChem-11232109473D

 30 32  0     1  0  0  0  0  0999 V2000
   -1.8524   -0.5184   -0.2071 O   0  0  0  0  0  0  0  0  0  0  0  0
   -3.9678    0.9730   -1.0498 O   0  0  0  0  0  0  0  0  0  0  0  0
    0.2521   -0.3486    1.0543 C   0  0  2  0  0  0  0  0  0  0  0  0
    1.4716   -1.4664   -0.4389 C   0  0  1  0  0  0  0  0  0  0  0  0
    0.7077    0.7709    0.0821 C   0  0  2  0  0  0  0  0  0  0  0  0
    1.5473   -0.0135   -0.9596 C   0  0  1  0  0  0  0  0  0  0  0  0
    1.4567   -1.2919    1.0852 C   0  0  0  0  0  0  0  0  0  0  0  0
   -0.7895   -1.2558    0.3625 C   0  0  2  0  0  0  0  0  0  0  0  0
    0.0442   -1.9923   -0.7009 C   0  0  0  0  0  0  0  0  0  0  0  0
    1.6445    1.8183    0.7052 C   0  0  0  0  0  0  0  0  0  0  0  0
    2.8997    0.6162   -0.8807 C   0  0  0  0  0  0  0  0  0  0  0  0
    2.9466    1.6116    0.0077 C   0  0  0  0  0  0  0  0  0  0  0  0
   -2.6176    0.1593    0.7845 C   0  0  0  0  0  0  0  0  0  0  0  0
   -3.7430    0.9374    0.1553 C   0  0  0  0  0  0  0  0  0  0  0  0
   -0.0591    0.0188    2.0348 H   0  0  0  0  0  0  0  0  0  0  0  0
    2.2555   -2.1227   -0.8238 H   0  0  0  0  0  0  0  0  0  0  0  0
   -0.1435    1.2781   -0.3854 H   0  0  0  0  0  0  0  0  0  0  0  0
    1.1423    0.0870   -1.9725 H   0  0  0  0  0  0  0  0  0  0  0  0
    1.2594   -2.2269    1.6214 H   0  0  0  0  0  0  0  0  0  0  0  0
    2.3656   -0.8386    1.4899 H   0  0  0  0  0  0  0  0  0  0  0  0
   -1.1953   -1.9925    1.0687 H   0  0  0  0  0  0  0  0  0  0  0  0
   -0.2964   -1.8048   -1.7241 H   0  0  0  0  0  0  0  0  0  0  0  0
    0.0076   -3.0728   -0.5186 H   0  0  0  0  0  0  0  0  0  0  0  0
    1.7501    1.6961    1.7875 H   0  0  0  0  0  0  0  0  0  0  0  0
    1.2735    2.8301    0.5096 H   0  0  0  0  0  0  0  0  0  0  0  0
    3.7401    0.3038   -1.4840 H   0  0  0  0  0  0  0  0  0  0  0  0
    3.8309    2.1983    0.2117 H   0  0  0  0  0  0  0  0  0  0  0  0
   -2.0100    0.8844    1.3332 H   0  0  0  0  0  0  0  0  0  0  0  0
   -3.0564   -0.5629    1.4808 H   0  0  0  0  0  0  0  0  0  0  0  0
   -4.3814    1.4941    0.8626 H   0  0  0  0  0  0  0  0  0  0  0  0
  1  8  1  0  0  0  0
  1 13  1  0  0  0  0
  2 14  2  0  0  0  0
  3  5  1  0  0  0  0
  3  7  1  0  0  0  0
  3  8  1  0  0  0  0
  3 15  1  0  0  0  0
  4  6  1  0  0  0  0
  4  7  1  0  0  0  0
  4  9  1  0  0  0  0
  4 16  1  0  0  0  0
  5  6  1  0  0  0  0
  5 10  1  0  0  0  0
  5 17  1  0  0  0  0
  6 11  1  0  0  0  0
  6 18  1  0  0  0  0
  7 19  1  0  0  0  0
  7 20  1  0  0  0  0
  8  9  1  0  0  0  0
  8 21  1  0  0  0  0
  9 22  1  0  0  0  0
  9 23  1  0  0  0  0
 10 12  1  0  0  0  0
 10 24  1  0  0  0  0
 10 25  1  0  0  0  0
 11 12  2  0  0  0  0
 11 26  1  0  0  0  0
 12 27  1  0  0  0  0
 13 14  1  0  0  0  0
 13 28  1  0  0  0  0
 13 29  1  0  0  0  0
 14 30  1  0  0  0  0
M  END
> <PUBCHEM_COMPOUND_CID>
175273

> <PUBCHEM_CONFORMER_RMSD>
0.6

> <PUBCHEM_CONFORMER_DIVERSEORDER>
1
13
22
2
5
20
23
6
4
19
7
21
11
15
14
10
3
12
8
16
17
18
9

> <PUBCHEM_MMFF94_PARTIAL_CHARGES>
12
1 -0.56
10 0.14
11 -0.29
12 -0.29
13 0.34
14 0.45
2 -0.57
26 0.15
27 0.15
30 0.06
6 0.14
8 0.28

> <PUBCHEM_EFFECTIVE_ROTOR_COUNT>
3.8

> <PUBCHEM_PHARMACOPHORE_FEATURES>
4
1 1 acceptor
1 2 acceptor
5 5 6 10 11 12 rings
7 3 4 5 6 7 8 9 rings

> <PUBCHEM_HEAVY_ATOM_COUNT>
14

> <PUBCHEM_ATOM_DEF_STEREO_COUNT>
0

> <PUBCHEM_ATOM_UDEF_STEREO_COUNT>
5

> <PUBCHEM_BOND_DEF_STEREO_COUNT>
0

> <PUBCHEM_BOND_UDEF_STEREO_COUNT>
0

> <PUBCHEM_ISOTOPIC_ATOM_COUNT>
0

> <PUBCHEM_COMPONENT_COUNT>
1

> <PUBCHEM_CACTVS_TAUTO_COUNT>
2

> <PUBCHEM_CONFORMER_ID>
0002ACA900000001

> <PUBCHEM_MMFF94_ENERGY>
45.8364

> <PUBCHEM_FEATURE_SELFOVERLAP>
20.386

> <PUBCHEM_SHAPE_FINGERPRINT>
11769659 78 10447665560182917660
12138202 97 17985557881794381524
12423570 1 15762442282158110322
12654215 9 18337111172393483196
12725867 57 17984979297965116026
13134695 92 18119229684790757834
13294875 104 18341599452299660352
13464514 151 18339373963060159880
13571099 52 18261396701592160840
13705890 14 13254793533933620104
14350558 41 10015862089558008057
15061688 2 17702088361063780352
15775835 57 18335702762549314693
16945 1 17844833510390592010
18186145 218 18058746787049947568
20653085 51 18122923167950468472
21524375 3 18336827601509544955
21639500 275 18341602694984241645
21947302 44 18335985285524276473
230 275 17822014189964128757
231179 274 18186518795641214125
23402655 69 18201157672574783693
23559900 14 18058747922103397748
25 1 18341344335030790568
2748010 2 18056213598433048288
276578 36 17894914044226421608
305870 269 18187361060339952906
3060560 45 18273495654519266853
353137 74 18059027132413531521
528886 8 18201445800086304306
549884 4 17846499244494405817
63268167 104 18340498789193315905
7364860 26 18339080372033565210
81228 2 17475799126664998579

> <PUBCHEM_SHAPE_MULTIPOLES>
276.37
5.23
1.95
1.1
5.46
0.23
0.04
-3.23
-1.11
-0.71
0.01
-0.06
0.07
0.21

> <PUBCHEM_SHAPE_SELFOVERLAP>
597.06

> <PUBCHEM_SHAPE_VOLUME>
158

> <PUBCHEM_COORDINATE_TYPE>
2
5
10

$$$$
