175572
  -OEChem-11232109223D

 31 31  0     0  0  0  0  0  0999 V2000
    2.3431   -0.6547    0.2977 O   0  0  0  0  0  0  0  0  0  0  0  0
    0.8318    0.0043   -1.3151 O   0  0  0  0  0  0  0  0  0  0  0  0
   -3.0550    1.4468   -0.1304 C   0  0  0  0  0  0  0  0  0  0  0  0
   -1.7727    1.1349    0.6459 C   0  0  0  0  0  0  0  0  0  0  0  0
   -4.0666    0.3141   -0.0034 C   0  0  0  0  0  0  0  0  0  0  0  0
   -1.2916   -0.2844    0.4727 C   0  0  0  0  0  0  0  0  0  0  0  0
   -3.4832   -1.0034   -0.5144 C   0  0  0  0  0  0  0  0  0  0  0  0
   -2.0702   -1.2378   -0.0681 C   0  0  0  0  0  0  0  0  0  0  0  0
    0.1044   -0.5710    0.9408 C   0  0  0  0  0  0  0  0  0  0  0  0
    1.0955   -0.3570   -0.1763 C   0  0  0  0  0  0  0  0  0  0  0  0
    3.4221    0.0589   -0.3150 C   0  0  0  0  0  0  0  0  0  0  0  0
    3.2049    1.5525   -0.1273 C   0  0  0  0  0  0  0  0  0  0  0  0
    4.7375   -0.4035    0.2929 C   0  0  0  0  0  0  0  0  0  0  0  0
   -3.4893    2.3836    0.2365 H   0  0  0  0  0  0  0  0  0  0  0  0
   -2.8135    1.6014   -1.1899 H   0  0  0  0  0  0  0  0  0  0  0  0
   -1.9441    1.3138    1.7147 H   0  0  0  0  0  0  0  0  0  0  0  0
   -0.9950    1.8375    0.3233 H   0  0  0  0  0  0  0  0  0  0  0  0
   -4.9775    0.5563   -0.5624 H   0  0  0  0  0  0  0  0  0  0  0  0
   -4.3585    0.2039    1.0488 H   0  0  0  0  0  0  0  0  0  0  0  0
   -3.5055   -1.0182   -1.6106 H   0  0  0  0  0  0  0  0  0  0  0  0
   -4.1150   -1.8298   -0.1696 H   0  0  0  0  0  0  0  0  0  0  0  0
   -1.6800   -2.2441   -0.1961 H   0  0  0  0  0  0  0  0  0  0  0  0
    0.1848   -1.6125    1.2746 H   0  0  0  0  0  0  0  0  0  0  0  0
    0.3636    0.0766    1.7857 H   0  0  0  0  0  0  0  0  0  0  0  0
    3.4413   -0.1822   -1.3852 H   0  0  0  0  0  0  0  0  0  0  0  0
    4.0701    2.1202   -0.4856 H   0  0  0  0  0  0  0  0  0  0  0  0
    2.3295    1.9202   -0.6707 H   0  0  0  0  0  0  0  0  0  0  0  0
    3.0468    1.7946    0.9297 H   0  0  0  0  0  0  0  0  0  0  0  0
    5.5906    0.1051   -0.1660 H   0  0  0  0  0  0  0  0  0  0  0  0
    4.8601   -1.4836    0.1590 H   0  0  0  0  0  0  0  0  0  0  0  0
    4.7555   -0.2169    1.3724 H   0  0  0  0  0  0  0  0  0  0  0  0
  1 10  1  0  0  0  0
  1 11  1  0  0  0  0
  2 10  2  0  0  0  0
  3  4  1  0  0  0  0
  3  5  1  0  0  0  0
  3 14  1  0  0  0  0
  3 15  1  0  0  0  0
  4  6  1  0  0  0  0
  4 16  1  0  0  0  0
  4 17  1  0  0  0  0
  5  7  1  0  0  0  0
  5 18  1  0  0  0  0
  5 19  1  0  0  0  0
  6  8  2  0  0  0  0
  6  9  1  0  0  0  0
  7  8  1  0  0  0  0
  7 20  1  0  0  0  0
  7 21  1  0  0  0  0
  8 22  1  0  0  0  0
  9 10  1  0  0  0  0
  9 23  1  0  0  0  0
  9 24  1  0  0  0  0
 11 12  1  0  0  0  0
 11 13  1  0  0  0  0
 11 25  1  0  0  0  0
 12 26  1  0  0  0  0
 12 27  1  0  0  0  0
 12 28  1  0  0  0  0
 13 29  1  0  0  0  0
 13 30  1  0  0  0  0
 13 31  1  0  0  0  0
M  END
> <PUBCHEM_COMPOUND_CID>
175572

> <PUBCHEM_CONFORMER_RMSD>
0.6

> <PUBCHEM_CONFORMER_DIVERSEORDER>
1
32
57
53
3
54
61
6
38
31
45
30
5
60
48
9
39
2
34
51
35
10
56
8
43
18
42
21
58
29
23
13
59
36
11
33
22
44
12
19
26
47
50
14
4
49
24
55
15
28
17
52
40
20
16
41
7
25
27
46
37

> <PUBCHEM_MMFF94_PARTIAL_CHARGES>
10
1 -0.43
10 0.66
11 0.28
2 -0.57
22 0.15
4 0.14
6 -0.28
7 0.14
8 -0.29
9 0.2

> <PUBCHEM_EFFECTIVE_ROTOR_COUNT>
4.8

> <PUBCHEM_PHARMACOPHORE_FEATURES>
3
1 2 acceptor
3 11 12 13 hydrophobe
6 3 4 5 6 7 8 rings

> <PUBCHEM_HEAVY_ATOM_COUNT>
13

> <PUBCHEM_ATOM_DEF_STEREO_COUNT>
0

> <PUBCHEM_ATOM_UDEF_STEREO_COUNT>
0

> <PUBCHEM_BOND_DEF_STEREO_COUNT>
0

> <PUBCHEM_BOND_UDEF_STEREO_COUNT>
0

> <PUBCHEM_ISOTOPIC_ATOM_COUNT>
0

> <PUBCHEM_COMPONENT_COUNT>
1

> <PUBCHEM_CACTVS_TAUTO_COUNT>
1

> <PUBCHEM_CONFORMER_ID>
0002ADD400000001

> <PUBCHEM_MMFF94_ENERGY>
8.3647

> <PUBCHEM_FEATURE_SELFOVERLAP>
15.223

> <PUBCHEM_SHAPE_FINGERPRINT>
11062470 55 18407760343522986143
12162725 195 18410859871360463040
15775835 57 18260549974718021593
17802600 8 18409726266293081280
17834072 33 18410858793872109764
18186145 218 17894627067343909014
19107657 47 16588021307811267184
200 152 18273492385859314950
20201158 50 17275106115613733927
20279233 1 16200152092739050286
20300324 65 18343299292849235489
20645464 45 13334737908267435011
20645477 56 18339929216838375113
20645477 70 16988571139300562902
20871999 31 18201424901397791663
21119208 17 18413388730671128158
21293036 1 15697996336340819122
22485316 2 10591766467360548024
23402539 116 18343575235876472613
23402655 69 18410855425853157388
23557571 272 18060708273034273977
23559900 14 18130224853114839414
265663 24 18411696586855953682
351380 180 18411415116200649112
4175511 318 17775281673097599861
57812782 119 18059858372141873040
58051976 100 18411420609337434718
58051976 378 18060419088395971631
9709674 26 18413396431632639654

> <PUBCHEM_SHAPE_MULTIPOLES>
255.8
8.41
1.36
0.87
4.51
0.38
-0.04
0.58
-0.44
-0.5
0
0.01
-0.03
-0.32

> <PUBCHEM_SHAPE_SELFOVERLAP>
502.197

> <PUBCHEM_SHAPE_VOLUME>
153

> <PUBCHEM_COORDINATE_TYPE>
2
5
10

$$$$
