175612
  -OEChem-11232109013D

 34 35  0     1  0  0  0  0  0999 V2000
   -1.8288    1.4008    1.8262 O   0  0  0  0  0  0  0  0  0  0  0  0
   -0.3222   -1.6460   -0.0065 C   0  0  0  0  0  0  0  0  0  0  0  0
    0.6505   -0.5646    0.5112 C   0  0  2  0  0  0  0  0  0  0  0  0
   -1.3411    0.5884   -0.3908 C   0  0  1  0  0  0  0  0  0  0  0  0
   -1.6710   -0.8813   -0.0358 C   0  0  0  0  0  0  0  0  0  0  0  0
    0.1521    0.6853   -0.1732 C   0  0  0  0  0  0  0  0  0  0  0  0
    2.1478   -0.8075    0.2955 C   0  0  0  0  0  0  0  0  0  0  0  0
   -0.3930   -2.8393    0.9553 C   0  0  0  0  0  0  0  0  0  0  0  0
    0.0218   -2.1763   -1.4120 C   0  0  0  0  0  0  0  0  0  0  0  0
    2.9232    0.4835    0.5627 C   0  0  0  0  0  0  0  0  0  0  0  0
    0.9784    1.6598   -0.5846 C   0  0  0  0  0  0  0  0  0  0  0  0
   -1.8130    0.9627   -1.7958 C   0  0  0  0  0  0  0  0  0  0  0  0
    2.4642    1.6144   -0.3658 C   0  0  0  0  0  0  0  0  0  0  0  0
   -1.9690    1.5201    0.6136 C   0  0  0  0  0  0  0  0  0  0  0  0
    0.4845   -0.4231    1.5900 H   0  0  0  0  0  0  0  0  0  0  0  0
   -2.1643   -0.9509    0.9427 H   0  0  0  0  0  0  0  0  0  0  0  0
   -2.3681   -1.3305   -0.7539 H   0  0  0  0  0  0  0  0  0  0  0  0
    2.3623   -1.1330   -0.7285 H   0  0  0  0  0  0  0  0  0  0  0  0
    2.4985   -1.6005    0.9655 H   0  0  0  0  0  0  0  0  0  0  0  0
    0.5671   -3.3643    1.0064 H   0  0  0  0  0  0  0  0  0  0  0  0
   -0.6497   -2.5201    1.9716 H   0  0  0  0  0  0  0  0  0  0  0  0
   -1.1540   -3.5587    0.6329 H   0  0  0  0  0  0  0  0  0  0  0  0
    0.9256   -2.7953   -1.3934 H   0  0  0  0  0  0  0  0  0  0  0  0
   -0.7883   -2.8040   -1.8007 H   0  0  0  0  0  0  0  0  0  0  0  0
    0.1895   -1.3703   -2.1325 H   0  0  0  0  0  0  0  0  0  0  0  0
    3.9977    0.3123    0.4314 H   0  0  0  0  0  0  0  0  0  0  0  0
    2.7759    0.7859    1.6075 H   0  0  0  0  0  0  0  0  0  0  0  0
    0.5843    2.5232   -1.1120 H   0  0  0  0  0  0  0  0  0  0  0  0
   -2.8953    0.8173   -1.8940 H   0  0  0  0  0  0  0  0  0  0  0  0
   -1.6126    2.0154   -2.0272 H   0  0  0  0  0  0  0  0  0  0  0  0
   -1.3241    0.3559   -2.5645 H   0  0  0  0  0  0  0  0  0  0  0  0
    2.9470    1.4982   -1.3437 H   0  0  0  0  0  0  0  0  0  0  0  0
    2.8011    2.5730    0.0447 H   0  0  0  0  0  0  0  0  0  0  0  0
   -2.5655    2.3556    0.2076 H   0  0  0  0  0  0  0  0  0  0  0  0
  1 14  2  0  0  0  0
  2  3  1  0  0  0  0
  2  5  1  0  0  0  0
  2  8  1  0  0  0  0
  2  9  1  0  0  0  0
  3  6  1  0  0  0  0
  3  7  1  0  0  0  0
  3 15  1  0  0  0  0
  4  5  1  0  0  0  0
  4  6  1  0  0  0  0
  4 12  1  0  0  0  0
  4 14  1  0  0  0  0
  5 16  1  0  0  0  0
  5 17  1  0  0  0  0
  6 11  2  0  0  0  0
  7 10  1  0  0  0  0
  7 18  1  0  0  0  0
  7 19  1  0  0  0  0
  8 20  1  0  0  0  0
  8 21  1  0  0  0  0
  8 22  1  0  0  0  0
  9 23  1  0  0  0  0
  9 24  1  0  0  0  0
  9 25  1  0  0  0  0
 10 13  1  0  0  0  0
 10 26  1  0  0  0  0
 10 27  1  0  0  0  0
 11 13  1  0  0  0  0
 11 28  1  0  0  0  0
 12 29  1  0  0  0  0
 12 30  1  0  0  0  0
 12 31  1  0  0  0  0
 13 32  1  0  0  0  0
 13 33  1  0  0  0  0
 14 34  1  0  0  0  0
M  END
> <PUBCHEM_COMPOUND_CID>
175612

> <PUBCHEM_CONFORMER_RMSD>
0.6

> <PUBCHEM_CONFORMER_DIVERSEORDER>
2
3
4
1

> <PUBCHEM_MMFF94_PARTIAL_CHARGES>
9
1 -0.57
11 -0.29
13 0.14
14 0.45
28 0.15
3 0.14
34 0.06
4 0.2
6 -0.28

> <PUBCHEM_EFFECTIVE_ROTOR_COUNT>
2.2

> <PUBCHEM_PHARMACOPHORE_FEATURES>
4
1 1 acceptor
3 2 8 9 hydrophobe
5 2 3 4 5 6 rings
6 3 6 7 10 11 13 rings

> <PUBCHEM_HEAVY_ATOM_COUNT>
14

> <PUBCHEM_ATOM_DEF_STEREO_COUNT>
0

> <PUBCHEM_ATOM_UDEF_STEREO_COUNT>
2

> <PUBCHEM_BOND_DEF_STEREO_COUNT>
0

> <PUBCHEM_BOND_UDEF_STEREO_COUNT>
0

> <PUBCHEM_ISOTOPIC_ATOM_COUNT>
0

> <PUBCHEM_COMPONENT_COUNT>
1

> <PUBCHEM_CACTVS_TAUTO_COUNT>
1

> <PUBCHEM_CONFORMER_ID>
0002ADFC00000002

> <PUBCHEM_MMFF94_ENERGY>
33.2462

> <PUBCHEM_FEATURE_SELFOVERLAP>
20.365

> <PUBCHEM_SHAPE_FINGERPRINT>
1 1 18118101607282697060
100427 49 17115782774438529042
11129358 1 8914860593240171838
12326174 3 17907295451208876679
12423570 1 12815615643369677691
12524768 44 17621876492098377119
13024252 1 14563073879756174549
13172582 1 18336260124860982360
14614273 12 17972869538963694988
14713566 1 18127384904288927318
14817 1 17551841230761983817
15001771 113 17830178265521371120
15076042 46 18269564999186709714
15309172 13 18334583403846177872
15490181 8 18341623593841228326
15775835 57 18187646937679364348
16945 1 17900247899481131663
19837323 101 17847066596546472008
21524375 3 18342457002164642753
2334 1 18408315588547749494
23419403 2 15045217605585625382
23559900 14 18411706470651537286
241688 4 16463867439673066873
2748010 2 18334570201174530846
427121 178 16979621161852733483
430814 3 17844822386124816585
5084963 1 18337098021124248170
63268167 104 18336531729950209576
68419 9 17200772416552865557
81228 2 18121216742873071890

> <PUBCHEM_SHAPE_MULTIPOLES>
282.24
3.17
2.67
1.35
2.14
1.4
0.08
-1.33
-0.25
-0.72
-0.13
-0.74
-0.19
-0.27

> <PUBCHEM_SHAPE_SELFOVERLAP>
588.357

> <PUBCHEM_SHAPE_VOLUME>
162.8

> <PUBCHEM_COORDINATE_TYPE>
2
5
10

$$$$
