175661
  -OEChem-11232109273D

 40 41  0     1  0  0  0  0  0999 V2000
    3.4621   -1.5403   -1.4553 O   0  0  0  0  0  0  0  0  0  0  0  0
   -0.0256    0.9312   -0.1725 C   0  0  1  0  0  0  0  0  0  0  0  0
   -1.4264    0.3568   -0.3706 C   0  0  1  0  0  0  0  0  0  0  0  0
    2.4576    0.3238   -0.2681 C   0  0  1  0  0  0  0  0  0  0  0  0
    1.0324   -0.1431   -0.4853 C   0  0  0  0  0  0  0  0  0  0  0  0
   -1.6292   -0.9095    0.4674 C   0  0  0  0  0  0  0  0  0  0  0  0
    2.7494    0.6956    1.1870 C   0  0  0  0  0  0  0  0  0  0  0  0
   -2.4985    1.4017   -0.0224 C   0  0  0  0  0  0  0  0  0  0  0  0
    4.2530    0.4958    1.3270 C   0  0  0  0  0  0  0  0  0  0  0  0
    3.4812   -0.7677   -0.5053 C   0  0  0  0  0  0  0  0  0  0  0  0
    4.5359   -0.7971    0.5721 C   0  0  0  0  0  0  0  0  0  0  0  0
   -3.0151   -1.5168    0.2274 C   0  0  0  0  0  0  0  0  0  0  0  0
    0.1494    2.1850   -1.0329 C   0  0  0  0  0  0  0  0  0  0  0  0
   -3.8778    0.8202    0.0875 C   0  0  0  0  0  0  0  0  0  0  0  0
   -4.1255   -0.4972    0.1857 C   0  0  0  0  0  0  0  0  0  0  0  0
   -5.5228   -1.0383    0.2584 C   0  0  0  0  0  0  0  0  0  0  0  0
    0.0836    1.2302    0.8782 H   0  0  0  0  0  0  0  0  0  0  0  0
   -1.5499    0.0813   -1.4287 H   0  0  0  0  0  0  0  0  0  0  0  0
    2.7328    1.1470   -0.9362 H   0  0  0  0  0  0  0  0  0  0  0  0
    0.9145   -0.4843   -1.5222 H   0  0  0  0  0  0  0  0  0  0  0  0
    0.9046   -1.0284    0.1433 H   0  0  0  0  0  0  0  0  0  0  0  0
   -1.5080   -0.6777    1.5337 H   0  0  0  0  0  0  0  0  0  0  0  0
   -0.9175   -1.7016    0.2243 H   0  0  0  0  0  0  0  0  0  0  0  0
    2.2232    0.0305    1.8832 H   0  0  0  0  0  0  0  0  0  0  0  0
    2.4584    1.7254    1.4161 H   0  0  0  0  0  0  0  0  0  0  0  0
   -2.5378    2.1677   -0.8052 H   0  0  0  0  0  0  0  0  0  0  0  0
   -2.2635    1.9070    0.9222 H   0  0  0  0  0  0  0  0  0  0  0  0
    4.5696    0.4392    2.3726 H   0  0  0  0  0  0  0  0  0  0  0  0
    4.7867    1.3309    0.8567 H   0  0  0  0  0  0  0  0  0  0  0  0
    4.3715   -1.6732    1.2058 H   0  0  0  0  0  0  0  0  0  0  0  0
    5.5408   -0.8073    0.1448 H   0  0  0  0  0  0  0  0  0  0  0  0
   -3.2128   -2.2498    1.0188 H   0  0  0  0  0  0  0  0  0  0  0  0
   -3.0133   -2.0635   -0.7242 H   0  0  0  0  0  0  0  0  0  0  0  0
   -0.0058    1.9645   -2.0944 H   0  0  0  0  0  0  0  0  0  0  0  0
    1.1498    2.6130   -0.9224 H   0  0  0  0  0  0  0  0  0  0  0  0
   -0.5387    2.9842   -0.7424 H   0  0  0  0  0  0  0  0  0  0  0  0
   -4.7038    1.5267    0.0814 H   0  0  0  0  0  0  0  0  0  0  0  0
   -5.7060   -1.7268   -0.5729 H   0  0  0  0  0  0  0  0  0  0  0  0
   -6.2763   -0.2454    0.2067 H   0  0  0  0  0  0  0  0  0  0  0  0
   -5.6723   -1.5797    1.1982 H   0  0  0  0  0  0  0  0  0  0  0  0
  1 10  2  0  0  0  0
  2  3  1  0  0  0  0
  2  5  1  0  0  0  0
  2 13  1  0  0  0  0
  2 17  1  0  0  0  0
  3  6  1  0  0  0  0
  3  8  1  0  0  0  0
  3 18  1  0  0  0  0
  4  5  1  0  0  0  0
  4  7  1  0  0  0  0
  4 10  1  0  0  0  0
  4 19  1  0  0  0  0
  5 20  1  0  0  0  0
  5 21  1  0  0  0  0
  6 12  1  0  0  0  0
  6 22  1  0  0  0  0
  6 23  1  0  0  0  0
  7  9  1  0  0  0  0
  7 24  1  0  0  0  0
  7 25  1  0  0  0  0
  8 14  1  0  0  0  0
  8 26  1  0  0  0  0
  8 27  1  0  0  0  0
  9 11  1  0  0  0  0
  9 28  1  0  0  0  0
  9 29  1  0  0  0  0
 10 11  1  0  0  0  0
 11 30  1  0  0  0  0
 11 31  1  0  0  0  0
 12 15  1  0  0  0  0
 12 32  1  0  0  0  0
 12 33  1  0  0  0  0
 13 34  1  0  0  0  0
 13 35  1  0  0  0  0
 13 36  1  0  0  0  0
 14 15  2  0  0  0  0
 14 37  1  0  0  0  0
 15 16  1  0  0  0  0
 16 38  1  0  0  0  0
 16 39  1  0  0  0  0
 16 40  1  0  0  0  0
M  END
> <PUBCHEM_COMPOUND_CID>
175661

> <PUBCHEM_CONFORMER_RMSD>
0.6

> <PUBCHEM_CONFORMER_DIVERSEORDER>
1
24
29
32
10
23
20
16
25
12
19
22
14
5
28
8
31
21
17
4
26
7
27
11
2
15
13
30
18
3
6
9

> <PUBCHEM_MMFF94_PARTIAL_CHARGES>
10
1 -0.57
10 0.45
11 0.06
12 0.14
14 -0.29
15 -0.28
16 0.14
37 0.15
4 0.06
8 0.14

> <PUBCHEM_EFFECTIVE_ROTOR_COUNT>
4.6

> <PUBCHEM_PHARMACOPHORE_FEATURES>
4
1 1 acceptor
1 13 hydrophobe
5 4 7 9 10 11 rings
6 3 6 8 12 14 15 rings

> <PUBCHEM_HEAVY_ATOM_COUNT>
16

> <PUBCHEM_ATOM_DEF_STEREO_COUNT>
0

> <PUBCHEM_ATOM_UDEF_STEREO_COUNT>
3

> <PUBCHEM_BOND_DEF_STEREO_COUNT>
0

> <PUBCHEM_BOND_UDEF_STEREO_COUNT>
0

> <PUBCHEM_ISOTOPIC_ATOM_COUNT>
0

> <PUBCHEM_COMPONENT_COUNT>
1

> <PUBCHEM_CACTVS_TAUTO_COUNT>
3

> <PUBCHEM_CONFORMER_ID>
0002AE2D00000001

> <PUBCHEM_MMFF94_ENERGY>
21.9955

> <PUBCHEM_FEATURE_SELFOVERLAP>
20.297

> <PUBCHEM_SHAPE_FINGERPRINT>
10354089 29 16056880256046596906
11132069 177 18408602543828811909
11543360 7 13840274722850048809
12032990 46 18409735045084596821
12236239 1 16877660141426015786
12251169 10 17846776334356772052
12507560 40 17988925552376162200
12892183 10 17632579327124624673
13296908 3 18411419501172126940
13533116 47 17417820512896306615
13583140 156 16773220886257278877
13675066 3 18272931622323880653
13690532 89 18187083979531257297
13760787 5 16008754588948818573
13862211 1 18260827129364074387
14115302 16 16660368116304219347
14252887 29 18342178860441139466
14289901 80 17346590880972655936
14386348 63 18412827975651885846
15342816 4 17967251996691987894
15848700 24 18333449850228245748
15885798 251 18260266352078470837
16752209 62 17385714756037392629
17804303 29 18408887339042264529
1813 80 17749392563424944956
18222031 100 18333734627992602597
19141452 34 18272088340203507999
193927 3 18188223086468011515
19784866 240 15864339204582104730
200 152 17632571652698327741
20279233 1 18272933817073267870
20281475 54 18260551074176862972
204376 136 15913608388878006813
20645477 70 18114747160820993189
20671657 53 17821728368538868381
21065199 12 18060417993232084512
21065201 7 18335138635621730626
21267235 1 18260838102578026859
212847 35 10663826269370381870
21501925 9 18408321120201973692
22224240 67 17988349486420703346
22646028 1 17822009808923348481
22646028 28 17821726139339714562
22854114 59 17632857529357120682
23048698 100 15985104102657367386
23366157 5 17533222109321033845
23402539 116 18342450457520466773
23532345 42 18408887334340946660
23557571 272 18408602531308173244
23559900 14 18340208484180485140
26918003 58 18060415807056664714
3060560 45 13262396649009327978
31174 14 17917705795432099496
42 15 18342739611096907633
4325135 7 17967816085376446748
449060 50 17917988412574692312
474 4 15194128700758223986
5104073 3 18058730195691510722
5374978 207 18341330071528920264
542803 24 14333126386020776178
573450 72 17894904092729362953
5924683 9 17631722898425837767
69090 78 18060133258644409919
7364860 26 18193001640732014837
81228 2 18116443548201746500
8272917 22 16128666223393925524
9709674 26 18412830208861085807

> <PUBCHEM_SHAPE_MULTIPOLES>
323.4
10.58
1.67
1.06
2.6
0.41
0
-4.02
-2.01
0.54
0.35
-1.23
-0.01
0.71

> <PUBCHEM_SHAPE_SELFOVERLAP>
655.699

> <PUBCHEM_SHAPE_VOLUME>
189

> <PUBCHEM_COORDINATE_TYPE>
2
5
10

$$$$
