175948
  -OEChem-11232108533D

 31 31  0     0  0  0  0  0  0999 V2000
    2.8118   -1.7438   -0.2586 O   0  0  0  0  0  0  0  0  0  0  0  0
    2.0830    0.5830   -0.0585 C   0  0  0  0  0  0  0  0  0  0  0  0
    1.0249    0.2707    1.0419 C   0  0  0  0  0  0  0  0  0  0  0  0
    2.3408   -0.6206   -0.9917 C   0  0  0  0  0  0  0  0  0  0  0  0
    3.4011    0.9473    0.6621 C   0  0  0  0  0  0  0  0  0  0  0  0
    1.6624    1.7903   -0.9163 C   0  0  0  0  0  0  0  0  0  0  0  0
   -0.3573   -0.1147    0.5677 C   0  0  0  0  0  0  0  0  0  0  0  0
   -1.3059    0.8748    0.3688 C   0  0  0  0  0  0  0  0  0  0  0  0
   -0.6481   -1.4498    0.3408 C   0  0  0  0  0  0  0  0  0  0  0  0
   -2.5816    0.5189   -0.0694 C   0  0  0  0  0  0  0  0  0  0  0  0
   -1.9239   -1.8056   -0.0971 C   0  0  0  0  0  0  0  0  0  0  0  0
   -2.8909   -0.8213   -0.3021 C   0  0  0  0  0  0  0  0  0  0  0  0
   -3.6163    1.5709   -0.2876 C   0  0  0  0  0  0  0  0  0  0  0  0
    0.9254    1.1479    1.6983 H   0  0  0  0  0  0  0  0  0  0  0  0
    1.3963   -0.5180    1.7107 H   0  0  0  0  0  0  0  0  0  0  0  0
    1.4454   -0.9140   -1.5487 H   0  0  0  0  0  0  0  0  0  0  0  0
    3.1094   -0.3729   -1.7326 H   0  0  0  0  0  0  0  0  0  0  0  0
    4.2016    1.1539   -0.0573 H   0  0  0  0  0  0  0  0  0  0  0  0
    3.7420    0.1372    1.3161 H   0  0  0  0  0  0  0  0  0  0  0  0
    3.2759    1.8416    1.2834 H   0  0  0  0  0  0  0  0  0  0  0  0
    1.4287    2.6592   -0.2912 H   0  0  0  0  0  0  0  0  0  0  0  0
    0.7830    1.5652   -1.5286 H   0  0  0  0  0  0  0  0  0  0  0  0
    2.4652    2.0841   -1.6026 H   0  0  0  0  0  0  0  0  0  0  0  0
   -1.0660    1.9184    0.5545 H   0  0  0  0  0  0  0  0  0  0  0  0
    0.0807   -2.2337    0.5124 H   0  0  0  0  0  0  0  0  0  0  0  0
    2.1190   -2.0315    0.3546 H   0  0  0  0  0  0  0  0  0  0  0  0
   -2.1660   -2.8496   -0.2737 H   0  0  0  0  0  0  0  0  0  0  0  0
   -3.8820   -1.1116   -0.6403 H   0  0  0  0  0  0  0  0  0  0  0  0
   -3.1597    2.5098   -0.6189 H   0  0  0  0  0  0  0  0  0  0  0  0
   -4.3292    1.2707   -1.0630 H   0  0  0  0  0  0  0  0  0  0  0  0
   -4.1658    1.7556    0.6408 H   0  0  0  0  0  0  0  0  0  0  0  0
  1  4  1  0  0  0  0
  1 26  1  0  0  0  0
  2  3  1  0  0  0  0
  2  4  1  0  0  0  0
  2  5  1  0  0  0  0
  2  6  1  0  0  0  0
  3  7  1  0  0  0  0
  3 14  1  0  0  0  0
  3 15  1  0  0  0  0
  4 16  1  0  0  0  0
  4 17  1  0  0  0  0
  5 18  1  0  0  0  0
  5 19  1  0  0  0  0
  5 20  1  0  0  0  0
  6 21  1  0  0  0  0
  6 22  1  0  0  0  0
  6 23  1  0  0  0  0
  7  8  1  0  0  0  0
  7  9  2  0  0  0  0
  8 10  2  0  0  0  0
  8 24  1  0  0  0  0
  9 11  1  0  0  0  0
  9 25  1  0  0  0  0
 10 12  1  0  0  0  0
 10 13  1  0  0  0  0
 11 12  2  0  0  0  0
 11 27  1  0  0  0  0
 12 28  1  0  0  0  0
 13 29  1  0  0  0  0
 13 30  1  0  0  0  0
 13 31  1  0  0  0  0
M  END
> <PUBCHEM_COMPOUND_CID>
175948

> <PUBCHEM_CONFORMER_RMSD>
0.6

> <PUBCHEM_CONFORMER_DIVERSEORDER>
2
8
4
5
7
3
6
1

> <PUBCHEM_MMFF94_PARTIAL_CHARGES>
15
1 -0.68
10 -0.14
11 -0.15
12 -0.15
13 0.14
24 0.15
25 0.15
26 0.4
27 0.15
28 0.15
3 0.14
4 0.28
7 -0.14
8 -0.15
9 -0.15

> <PUBCHEM_EFFECTIVE_ROTOR_COUNT>
3

> <PUBCHEM_PHARMACOPHORE_FEATURES>
4
1 1 acceptor
1 1 donor
3 2 5 6 hydrophobe
6 7 8 9 10 11 12 rings

> <PUBCHEM_HEAVY_ATOM_COUNT>
13

> <PUBCHEM_ATOM_DEF_STEREO_COUNT>
0

> <PUBCHEM_ATOM_UDEF_STEREO_COUNT>
0

> <PUBCHEM_BOND_DEF_STEREO_COUNT>
0

> <PUBCHEM_BOND_UDEF_STEREO_COUNT>
0

> <PUBCHEM_ISOTOPIC_ATOM_COUNT>
0

> <PUBCHEM_COMPONENT_COUNT>
1

> <PUBCHEM_CACTVS_TAUTO_COUNT>
1

> <PUBCHEM_CONFORMER_ID>
0002AF4C00000002

> <PUBCHEM_MMFF94_ENERGY>
37.0802

> <PUBCHEM_FEATURE_SELFOVERLAP>
20.297

> <PUBCHEM_SHAPE_FINGERPRINT>
10608611 8 18341890835307239936
10922523 26 18410858745888945703
12162725 195 18188488115487424988
12500047 106 18342450456729370568
12716758 59 18413107260300627795
12897270 3 18195816394919974436
12932764 1 17632299041943363143
13571099 22 18201159858243275102
14325111 11 18411698781489173073
15219456 202 18272933833962967258
15279308 100 18336550412799315613
15775835 57 17822007605610640853
15852999 172 18131344211432938906
16945 1 18194125333083033227
17134986 127 18190452767110614061
17357990 137 17458067062146434532
18186145 218 18271252620765617125
18522853 266 18412545426716976047
18619055 16 18273215287506961498
19973954 147 18336272348058292893
20201158 50 18202283649316011042
20279233 1 17988923404892286896
20645476 183 18187364324699889387
20645477 56 18410571799419766745
20645477 70 17703511008318002398
20653085 51 18260556614742664633
20711985 344 16484758422810457944
21501502 16 18341895211826023999
22802520 49 18341902887122395067
23402539 116 18338781424997726908
23552423 10 18336266824714857267
23557571 272 18201722919728813017
23559900 14 18201717337152166504
2748010 2 18341339954185455535
3248919 1 18188488089659488387
69090 78 18343577443563554679
7364860 26 18343301483440805642
74978 22 18334298668809681503
7832392 63 18334857182209858589
8030462 33 17632309977025161400
81228 2 18192427696279026627
93112 12 18411422803880690845
9939556 21 18407762551130791237

> <PUBCHEM_SHAPE_MULTIPOLES>
261.66
5.71
1.91
0.94
0.22
0.24
-0.01
-1.14
-0.56
0.34
-0.29
-0.44
-0.1
0.2

> <PUBCHEM_SHAPE_SELFOVERLAP>
528.903

> <PUBCHEM_SHAPE_VOLUME>
155

> <PUBCHEM_COORDINATE_TYPE>
2
5
10

$$$$
