176439
  -OEChem-11232109263D

 28 28  0     0  0  0  0  0  0999 V2000
    2.4211    1.8477    0.3433 O   0  0  0  0  0  0  0  0  0  0  0  0
    0.7955   -2.6351   -0.1012 O   0  0  0  0  0  0  0  0  0  0  0  0
    2.9173   -0.8647    0.0858 O   0  0  0  0  0  0  0  0  0  0  0  0
   -0.9893    0.5415    0.1894 C   0  0  0  0  0  0  0  0  0  0  0  0
    1.3887    0.9636    0.2501 C   0  0  0  0  0  0  0  0  0  0  0  0
    0.5688   -1.2978    0.0253 C   0  0  0  0  0  0  0  0  0  0  0  0
   -0.7432   -0.8255    0.0596 C   0  0  0  0  0  0  0  0  0  0  0  0
    0.0768    1.4360    0.2847 C   0  0  0  0  0  0  0  0  0  0  0  0
    1.6348   -0.4033    0.1205 C   0  0  0  0  0  0  0  0  0  0  0  0
   -2.3578    1.0331    0.2230 C   0  0  0  0  0  0  0  0  0  0  0  0
   -3.4482    0.3731   -0.2288 C   0  0  0  0  0  0  0  0  0  0  0  0
    2.9221    2.3898   -0.8769 C   0  0  0  0  0  0  0  0  0  0  0  0
   -0.3495   -3.4807   -0.1926 C   0  0  0  0  0  0  0  0  0  0  0  0
   -4.8371    0.9223   -0.1823 C   0  0  0  0  0  0  0  0  0  0  0  0
   -1.5883   -1.5003    0.0162 H   0  0  0  0  0  0  0  0  0  0  0  0
   -0.1031    2.5043    0.3851 H   0  0  0  0  0  0  0  0  0  0  0  0
   -2.4940    2.0268    0.6450 H   0  0  0  0  0  0  0  0  0  0  0  0
   -3.3674   -0.6079   -0.6867 H   0  0  0  0  0  0  0  0  0  0  0  0
    2.8926   -1.8328   -0.0087 H   0  0  0  0  0  0  0  0  0  0  0  0
    2.1411    2.9563   -1.3939 H   0  0  0  0  0  0  0  0  0  0  0  0
    3.3012    1.5941   -1.5259 H   0  0  0  0  0  0  0  0  0  0  0  0
    3.7458    3.0680   -0.6379 H   0  0  0  0  0  0  0  0  0  0  0  0
   -0.9417   -3.2663   -1.0889 H   0  0  0  0  0  0  0  0  0  0  0  0
   -0.9482   -3.4515    0.7243 H   0  0  0  0  0  0  0  0  0  0  0  0
    0.0177   -4.5073   -0.2961 H   0  0  0  0  0  0  0  0  0  0  0  0
   -5.2444    0.9925   -1.1955 H   0  0  0  0  0  0  0  0  0  0  0  0
   -5.4807    0.2582    0.4027 H   0  0  0  0  0  0  0  0  0  0  0  0
   -4.8734    1.9183    0.2701 H   0  0  0  0  0  0  0  0  0  0  0  0
  1  5  1  0  0  0  0
  1 12  1  0  0  0  0
  2  6  1  0  0  0  0
  2 13  1  0  0  0  0
  3  9  1  0  0  0  0
  3 19  1  0  0  0  0
  4  7  2  0  0  0  0
  4  8  1  0  0  0  0
  4 10  1  0  0  0  0
  5  8  2  0  0  0  0
  5  9  1  0  0  0  0
  6  7  1  0  0  0  0
  6  9  2  0  0  0  0
  7 15  1  0  0  0  0
  8 16  1  0  0  0  0
 10 11  2  3  0  0  0
 10 17  1  0  0  0  0
 11 14  1  0  0  0  0
 11 18  1  0  0  0  0
 12 20  1  0  0  0  0
 12 21  1  0  0  0  0
 12 22  1  0  0  0  0
 13 23  1  0  0  0  0
 13 24  1  0  0  0  0
 13 25  1  0  0  0  0
 14 26  1  0  0  0  0
 14 27  1  0  0  0  0
 14 28  1  0  0  0  0
M  END
> <PUBCHEM_COMPOUND_CID>
176439

> <PUBCHEM_CONFORMER_RMSD>
0.6

> <PUBCHEM_CONFORMER_DIVERSEORDER>
2
1

> <PUBCHEM_MMFF94_PARTIAL_CHARGES>
19
1 -0.36
10 -0.18
11 -0.29
12 0.28
13 0.28
14 0.14
15 0.15
16 0.15
17 0.15
18 0.15
19 0.45
2 -0.36
3 -0.53
4 0.03
5 0.08
6 0.08
7 -0.15
8 -0.15
9 0.08

> <PUBCHEM_EFFECTIVE_ROTOR_COUNT>
3

> <PUBCHEM_PHARMACOPHORE_FEATURES>
5
1 1 acceptor
1 14 hydrophobe
1 2 acceptor
1 3 donor
6 4 5 6 7 8 9 rings

> <PUBCHEM_HEAVY_ATOM_COUNT>
14

> <PUBCHEM_ATOM_DEF_STEREO_COUNT>
0

> <PUBCHEM_ATOM_UDEF_STEREO_COUNT>
0

> <PUBCHEM_BOND_DEF_STEREO_COUNT>
0

> <PUBCHEM_BOND_UDEF_STEREO_COUNT>
1

> <PUBCHEM_ISOTOPIC_ATOM_COUNT>
0

> <PUBCHEM_COMPONENT_COUNT>
1

> <PUBCHEM_CACTVS_TAUTO_COUNT>
2

> <PUBCHEM_CONFORMER_ID>
0002B13700000002

> <PUBCHEM_MMFF94_ENERGY>
54.4574

> <PUBCHEM_FEATURE_SELFOVERLAP>
25.371

> <PUBCHEM_SHAPE_FINGERPRINT>
1 1 18410571756142643407
10967382 1 18411698755492509483
11471102 20 18339074891903078917
12346645 6 18408602548129346261
13140716 1 18411130359541792651
13380535 76 18341891947983032464
13380536 305 18410859836937206844
13836976 161 18410570669832363903
14251717 144 18340483374903765471
14415576 193 18335420136785502733
14911166 2 18339933627700956814
15442244 35 17693940687970836297
16945 1 18266469710608606577
17134986 127 18262527012536503028
17990270 104 18122060893130973227
193761 8 18195245744348985562
20201158 50 18264209119498143315
20645476 183 18117285954491663156
20645477 70 18336259043014448869
20820808 20 18412543223578315737
21499 59 18337387236080750669
21501502 16 18265889331762495350
21524375 3 18261108625103477976
2255824 54 18339645516883865415
2334 1 18267304407432603267
23530152 11 18411982502691743935
23552423 10 18197220252420692505
23558518 356 17540812124324306352
241688 4 17329996789604058106
257057 1 17400916397676404451
2748010 2 18337965591649047082
3060560 45 18338796715086712126
3071541 37 18408327670058729117
33824 294 18410007707316008203
458136 41 18339098033213068249
58779409 8 18266467696263878215
7364860 26 18268990890971660819
81228 2 17544751686933179715
81539 233 18334853918345761597
8272917 22 18268996389057313965

> <PUBCHEM_SHAPE_MULTIPOLES>
270.51
5.65
3.15
0.69
6.3
2.86
-0.05
-3.94
-0.76
-1.69
-0.45
-0.12
-0.16
-0.31

> <PUBCHEM_SHAPE_SELFOVERLAP>
555.385

> <PUBCHEM_SHAPE_VOLUME>
158.4

> <PUBCHEM_COORDINATE_TYPE>
2
5
10

$$$$
