17824126
  -OEChem-11232108423D

 45 47  0     1  0  0  0  0  0999 V2000
   -1.2165   -0.8581    1.4335 O   0  0  0  0  0  0  0  0  0  0  0  0
    0.3517    0.2980    0.0456 C   0  0  1  0  0  0  0  0  0  0  0  0
    1.3633   -0.9175    0.1042 C   0  0  0  0  0  0  0  0  0  0  0  0
    2.3118    1.3145    0.4131 C   0  0  1  0  0  0  0  0  0  0  0  0
    0.9382    1.2661    1.0889 C   0  0  0  0  0  0  0  0  0  0  0  0
    2.7112   -0.1821    0.4368 C   0  0  2  0  0  0  0  0  0  0  0  0
    0.5715    1.1403   -1.2374 C   0  0  0  0  0  0  0  0  0  0  0  0
   -1.1244   -0.0392    0.2638 C   0  0  0  0  0  0  0  0  0  0  0  0
    1.9417    1.7860   -1.0021 C   0  0  0  0  0  0  0  0  0  0  0  0
    1.3865   -1.7533   -1.1876 C   0  0  0  0  0  0  0  0  0  0  0  0
    1.0336   -1.8990    1.2537 C   0  0  0  0  0  0  0  0  0  0  0  0
   -1.6715   -0.8462   -0.9236 C   0  0  0  0  0  0  0  0  0  0  0  0
   -1.9480    1.2405    0.4821 C   0  0  0  0  0  0  0  0  0  0  0  0
    3.9314   -0.5291   -0.4066 C   0  0  0  0  0  0  0  0  0  0  0  0
   -3.1696   -1.1277   -0.7933 C   0  0  0  0  0  0  0  0  0  0  0  0
   -3.4443    0.9514    0.6102 C   0  0  0  0  0  0  0  0  0  0  0  0
   -3.9665    0.1554   -0.5814 C   0  0  0  0  0  0  0  0  0  0  0  0
    3.0411    1.9605    0.9077 H   0  0  0  0  0  0  0  0  0  0  0  0
    0.9706    0.8678    2.1075 H   0  0  0  0  0  0  0  0  0  0  0  0
    0.4737    2.2579    1.1105 H   0  0  0  0  0  0  0  0  0  0  0  0
    2.9904   -0.4088    1.4766 H   0  0  0  0  0  0  0  0  0  0  0  0
   -0.1526    1.9478   -1.3692 H   0  0  0  0  0  0  0  0  0  0  0  0
    0.5519    0.5732   -2.1697 H   0  0  0  0  0  0  0  0  0  0  0  0
    2.6717    1.5035   -1.7641 H   0  0  0  0  0  0  0  0  0  0  0  0
    1.8468    2.8781   -1.0264 H   0  0  0  0  0  0  0  0  0  0  0  0
    0.5024   -2.3590   -1.3641 H   0  0  0  0  0  0  0  0  0  0  0  0
    1.5907   -1.1684   -2.0862 H   0  0  0  0  0  0  0  0  0  0  0  0
    2.1994   -2.4891   -1.1271 H   0  0  0  0  0  0  0  0  0  0  0  0
    0.1882   -2.5579    1.0304 H   0  0  0  0  0  0  0  0  0  0  0  0
    1.8844   -2.5812    1.3905 H   0  0  0  0  0  0  0  0  0  0  0  0
    0.9019   -1.4082    2.2230 H   0  0  0  0  0  0  0  0  0  0  0  0
   -1.2350   -1.8401   -0.9591 H   0  0  0  0  0  0  0  0  0  0  0  0
   -1.4966   -0.3443   -1.8801 H   0  0  0  0  0  0  0  0  0  0  0  0
   -1.8335    1.9607   -0.3311 H   0  0  0  0  0  0  0  0  0  0  0  0
   -1.6512    1.7382    1.4125 H   0  0  0  0  0  0  0  0  0  0  0  0
    3.7636   -0.3916   -1.4778 H   0  0  0  0  0  0  0  0  0  0  0  0
    4.7813    0.1001   -0.1210 H   0  0  0  0  0  0  0  0  0  0  0  0
    4.2247   -1.5716   -0.2442 H   0  0  0  0  0  0  0  0  0  0  0  0
   -3.3595   -1.8215    0.0341 H   0  0  0  0  0  0  0  0  0  0  0  0
   -3.5247   -1.6290   -1.7016 H   0  0  0  0  0  0  0  0  0  0  0  0
   -3.9918    1.8988    0.6810 H   0  0  0  0  0  0  0  0  0  0  0  0
   -3.6511    0.4079    1.5395 H   0  0  0  0  0  0  0  0  0  0  0  0
   -2.1450   -1.0761    1.6083 H   0  0  0  0  0  0  0  0  0  0  0  0
   -3.9085    0.7735   -1.4858 H   0  0  0  0  0  0  0  0  0  0  0  0
   -5.0242   -0.0874   -0.4288 H   0  0  0  0  0  0  0  0  0  0  0  0
  1  8  1  0  0  0  0
  1 43  1  0  0  0  0
  2  3  1  0  0  0  0
  2  5  1  0  0  0  0
  2  7  1  0  0  0  0
  2  8  1  0  0  0  0
  3  6  1  0  0  0  0
  3 10  1  0  0  0  0
  3 11  1  0  0  0  0
  4  5  1  0  0  0  0
  4  6  1  0  0  0  0
  4  9  1  0  0  0  0
  4 18  1  0  0  0  0
  5 19  1  0  0  0  0
  5 20  1  0  0  0  0
  6 14  1  0  0  0  0
  6 21  1  0  0  0  0
  7  9  1  0  0  0  0
  7 22  1  0  0  0  0
  7 23  1  0  0  0  0
  8 12  1  0  0  0  0
  8 13  1  0  0  0  0
  9 24  1  0  0  0  0
  9 25  1  0  0  0  0
 10 26  1  0  0  0  0
 10 27  1  0  0  0  0
 10 28  1  0  0  0  0
 11 29  1  0  0  0  0
 11 30  1  0  0  0  0
 11 31  1  0  0  0  0
 12 15  1  0  0  0  0
 12 32  1  0  0  0  0
 12 33  1  0  0  0  0
 13 16  1  0  0  0  0
 13 34  1  0  0  0  0
 13 35  1  0  0  0  0
 14 36  1  0  0  0  0
 14 37  1  0  0  0  0
 14 38  1  0  0  0  0
 15 17  1  0  0  0  0
 15 39  1  0  0  0  0
 15 40  1  0  0  0  0
 16 17  1  0  0  0  0
 16 41  1  0  0  0  0
 16 42  1  0  0  0  0
 17 44  1  0  0  0  0
 17 45  1  0  0  0  0
M  END
> <PUBCHEM_COMPOUND_CID>
17824126

> <PUBCHEM_CONFORMER_RMSD>
0.6

> <PUBCHEM_CONFORMER_DIVERSEORDER>
1
4
8
9
6
5
7
2
3

> <PUBCHEM_MMFF94_PARTIAL_CHARGES>
3
1 -0.68
43 0.4
8 0.28

> <PUBCHEM_EFFECTIVE_ROTOR_COUNT>
3.2

> <PUBCHEM_PHARMACOPHORE_FEATURES>
5
1 1 acceptor
1 1 donor
3 3 10 11 hydrophobe
6 8 12 13 15 16 17 rings
7 2 3 4 5 6 7 9 rings

> <PUBCHEM_HEAVY_ATOM_COUNT>
17

> <PUBCHEM_ATOM_DEF_STEREO_COUNT>
0

> <PUBCHEM_ATOM_UDEF_STEREO_COUNT>
3

> <PUBCHEM_BOND_DEF_STEREO_COUNT>
0

> <PUBCHEM_BOND_UDEF_STEREO_COUNT>
0

> <PUBCHEM_ISOTOPIC_ATOM_COUNT>
0

> <PUBCHEM_COMPONENT_COUNT>
1

> <PUBCHEM_CACTVS_TAUTO_COUNT>
1

> <PUBCHEM_CONFORMER_ID>
010FF97E00000001

> <PUBCHEM_MMFF94_ENERGY>
84.5471

> <PUBCHEM_FEATURE_SELFOVERLAP>
25.371

> <PUBCHEM_SHAPE_FINGERPRINT>
10062212 137 18343577434546598878
10219947 1 17967810561346805836
10863032 1 17703785963834862184
10922523 26 18339361860174616365
10948715 1 18198617942211099976
11578080 2 17979877667034051985
11806522 49 18342451564899550310
12423570 1 17541334314937524116
12491281 212 18272658939245458441
13134695 92 16950269707481112732
13221675 6 18343018874271059799
13581323 91 17846776312813331349
14115302 16 18272090521698390461
14144814 61 18131067117538894729
14181834 199 18409174315866605684
14993402 34 18260553337914570548
15775835 57 18201158853136811073
15852999 172 17168692141756401699
16945 1 17967807245732195736
18186145 218 18114453531192355815
19010151 120 17489871527085996088
19786989 88 17386013922047608333
200 152 17989479732491460501
20511035 2 18192436492224141074
20559304 39 18131347501451506889
20645477 70 18412537700672340391
21267235 1 18272939327579729271
21501502 16 18342739632693212769
22344851 262 18343301448601058317
2255824 54 18261109690481798278
23402539 116 18114175294557715260
23402655 69 18410570644068211429
23419403 2 14883895129538972796
23557571 272 16486973960436601177
23559900 14 17704068470078438730
25 1 17967532350376383187
2748010 2 17824557484844583088
296302 2 17458347446312078750
3060560 45 18187355536938312966
3286 77 18201145654797165084
474 4 18187645868211538405
528886 8 17967818253759749160
7364860 26 18059855051889501702
74978 22 17749675193821515897
77492 1 18413105074120088981
7832392 63 18270681939924005545
81228 2 15226190128795088251
9981440 41 17477188901152576328

> <PUBCHEM_SHAPE_MULTIPOLES>
343.98
5.68
1.85
1.28
2.83
0.12
0.03
-0.03
-0.68
-0.59
-0.06
-0.08
0.13
-0.43

> <PUBCHEM_SHAPE_SELFOVERLAP>
731.292

> <PUBCHEM_SHAPE_VOLUME>
196.9

> <PUBCHEM_COORDINATE_TYPE>
2
5
10

$$$$
