17839537
  -OEChem-11232109213D

 43 44  0     1  0  0  0  0  0999 V2000
   -3.9207   -0.3760   -0.5035 O   0  0  0  0  0  0  0  0  0  0  0  0
   -0.6141    0.6793   -0.3309 C   0  0  1  0  0  0  0  0  0  0  0  0
   -1.6680   -0.2777    0.3063 C   0  0  1  0  0  0  0  0  0  0  0  0
    0.8037    0.1064   -0.2040 C   0  0  0  0  0  0  0  0  0  0  0  0
    1.9748    1.0855    0.0273 C   0  0  0  0  0  0  0  0  0  0  0  0
    0.9889   -1.2367   -0.2129 C   0  0  0  0  0  0  0  0  0  0  0  0
   -1.5638   -1.6605   -0.3517 C   0  0  0  0  0  0  0  0  0  0  0  0
   -0.1469   -2.2361   -0.3044 C   0  0  0  0  0  0  0  0  0  0  0  0
    3.3446    0.3952   -0.2146 C   0  0  0  0  0  0  0  0  0  0  0  0
    2.3442   -1.8900   -0.0678 C   0  0  0  0  0  0  0  0  0  0  0  0
    3.4365   -0.9668    0.4514 C   0  0  0  0  0  0  0  0  0  0  0  0
   -0.9202    0.9674   -1.8175 C   0  0  0  0  0  0  0  0  0  0  0  0
   -1.4938   -0.3754    1.8352 C   0  0  0  0  0  0  0  0  0  0  0  0
    1.9468    2.3192   -0.8970 C   0  0  0  0  0  0  0  0  0  0  0  0
    1.9066    1.5865    1.4885 C   0  0  0  0  0  0  0  0  0  0  0  0
   -3.0635    0.2621    0.1057 C   0  0  0  0  0  0  0  0  0  0  0  0
   -3.3552    1.6178    0.6898 C   0  0  0  0  0  0  0  0  0  0  0  0
   -0.6495    1.6325    0.2072 H   0  0  0  0  0  0  0  0  0  0  0  0
   -1.8797   -1.6120   -1.4023 H   0  0  0  0  0  0  0  0  0  0  0  0
   -2.2552   -2.3716    0.1205 H   0  0  0  0  0  0  0  0  0  0  0  0
    0.0044   -2.8806   -1.1792 H   0  0  0  0  0  0  0  0  0  0  0  0
   -0.0868   -2.8916    0.5749 H   0  0  0  0  0  0  0  0  0  0  0  0
    4.1626    1.0305    0.1485 H   0  0  0  0  0  0  0  0  0  0  0  0
    3.5115    0.2663   -1.2932 H   0  0  0  0  0  0  0  0  0  0  0  0
    2.2779   -2.7492    0.6108 H   0  0  0  0  0  0  0  0  0  0  0  0
    2.6374   -2.2846   -1.0490 H   0  0  0  0  0  0  0  0  0  0  0  0
    3.3548   -0.8657    1.5398 H   0  0  0  0  0  0  0  0  0  0  0  0
    4.4181   -1.4140    0.2555 H   0  0  0  0  0  0  0  0  0  0  0  0
   -0.7796    0.0821   -2.4466 H   0  0  0  0  0  0  0  0  0  0  0  0
   -1.9450    1.3222   -1.9615 H   0  0  0  0  0  0  0  0  0  0  0  0
   -0.2724    1.7484   -2.2216 H   0  0  0  0  0  0  0  0  0  0  0  0
   -0.6066   -0.9513    2.1172 H   0  0  0  0  0  0  0  0  0  0  0  0
   -1.3818    0.6105    2.2999 H   0  0  0  0  0  0  0  0  0  0  0  0
   -2.3547   -0.8675    2.3039 H   0  0  0  0  0  0  0  0  0  0  0  0
    2.8192    2.9602   -0.7199 H   0  0  0  0  0  0  0  0  0  0  0  0
    1.9693    2.0270   -1.9527 H   0  0  0  0  0  0  0  0  0  0  0  0
    1.0618    2.9418   -0.7292 H   0  0  0  0  0  0  0  0  0  0  0  0
    2.7825    2.1968    1.7379 H   0  0  0  0  0  0  0  0  0  0  0  0
    1.0215    2.2088    1.6625 H   0  0  0  0  0  0  0  0  0  0  0  0
    1.8647    0.7586    2.2048 H   0  0  0  0  0  0  0  0  0  0  0  0
   -2.6797    2.3799    0.2998 H   0  0  0  0  0  0  0  0  0  0  0  0
   -4.3707    1.9090    0.4003 H   0  0  0  0  0  0  0  0  0  0  0  0
   -3.3221    1.5930    1.7803 H   0  0  0  0  0  0  0  0  0  0  0  0
  1 16  2  0  0  0  0
  2  3  1  0  0  0  0
  2  4  1  0  0  0  0
  2 12  1  0  0  0  0
  2 18  1  0  0  0  0
  3  7  1  0  0  0  0
  3 13  1  0  0  0  0
  3 16  1  0  0  0  0
  4  5  1  0  0  0  0
  4  6  2  0  0  0  0
  5  9  1  0  0  0  0
  5 14  1  0  0  0  0
  5 15  1  0  0  0  0
  6  8  1  0  0  0  0
  6 10  1  0  0  0  0
  7  8  1  0  0  0  0
  7 19  1  0  0  0  0
  7 20  1  0  0  0  0
  8 21  1  0  0  0  0
  8 22  1  0  0  0  0
  9 11  1  0  0  0  0
  9 23  1  0  0  0  0
  9 24  1  0  0  0  0
 10 11  1  0  0  0  0
 10 25  1  0  0  0  0
 10 26  1  0  0  0  0
 11 27  1  0  0  0  0
 11 28  1  0  0  0  0
 12 29  1  0  0  0  0
 12 30  1  0  0  0  0
 12 31  1  0  0  0  0
 13 32  1  0  0  0  0
 13 33  1  0  0  0  0
 13 34  1  0  0  0  0
 14 35  1  0  0  0  0
 14 36  1  0  0  0  0
 14 37  1  0  0  0  0
 15 38  1  0  0  0  0
 15 39  1  0  0  0  0
 15 40  1  0  0  0  0
 16 17  1  0  0  0  0
 17 41  1  0  0  0  0
 17 42  1  0  0  0  0
 17 43  1  0  0  0  0
M  END
> <PUBCHEM_COMPOUND_CID>
17839537

> <PUBCHEM_CONFORMER_RMSD>
0.6

> <PUBCHEM_CONFORMER_DIVERSEORDER>
3
14
13
5
10
2
11
4
12
6
9
7
1
8

> <PUBCHEM_MMFF94_PARTIAL_CHARGES>
10
1 -0.57
10 0.14
16 0.45
17 0.06
2 0.14
3 0.06
4 -0.28
5 0.14
6 -0.28
8 0.14

> <PUBCHEM_EFFECTIVE_ROTOR_COUNT>
2.6

> <PUBCHEM_PHARMACOPHORE_FEATURES>
4
1 1 acceptor
3 5 14 15 hydrophobe
6 2 3 4 6 7 8 rings
6 4 5 6 9 10 11 rings

> <PUBCHEM_HEAVY_ATOM_COUNT>
17

> <PUBCHEM_ATOM_DEF_STEREO_COUNT>
0

> <PUBCHEM_ATOM_UDEF_STEREO_COUNT>
2

> <PUBCHEM_BOND_DEF_STEREO_COUNT>
0

> <PUBCHEM_BOND_UDEF_STEREO_COUNT>
0

> <PUBCHEM_ISOTOPIC_ATOM_COUNT>
0

> <PUBCHEM_COMPONENT_COUNT>
1

> <PUBCHEM_CACTVS_TAUTO_COUNT>
2

> <PUBCHEM_CONFORMER_ID>
011035B100000003

> <PUBCHEM_MMFF94_ENERGY>
42.0326

> <PUBCHEM_FEATURE_SELFOVERLAP>
20.313

> <PUBCHEM_SHAPE_FINGERPRINT>
104564 63 17982461399500544208
10863032 1 18342175608792213259
10967382 1 18410575076289539190
10980938 120 18412548682502639874
12011746 2 18335140860546789022
12251169 10 18408605876533477522
12491281 212 18411427215128608441
12507560 14 18198900323204383494
12524768 44 17894910788483085637
12696612 119 18408042922696552230
12716301 132 17242994783734860884
13140716 1 18410291458045234642
13172582 1 18410851036770990746
13538477 17 17489296533828154863
14178342 30 18195229221683488810
14251717 144 18411978035952181895
14787075 74 16550577701362370425
15219456 202 18187920625674398757
15309172 13 18408888433884274710
15775835 57 18411984697535875286
15881359 60 17897977317917912141
16945 1 18337972120078601118
18175812 5 18113341928967994871
18186145 218 18343304725951333485
200 152 18201706350330385389
20510252 161 17477492365986769320
20511035 2 18262815054201476942
20671657 1 18337396040700449396
21501502 16 18338232777475461214
21524375 3 18342458149179529455
22094290 62 18409731780920027176
22344851 262 18262798600492768567
22721475 48 18261678077837410212
23184049 59 18335987484431545843
2334 1 18122344841803377822
23463225 33 18408323285034068558
23493267 7 16733263443713199565
23557571 272 14620792674443116995
23559900 14 18200304545418216497
2748010 2 18265057005718553486
3286 77 18271796930439524573
350125 39 18267872868019164250
53812653 166 18341609334982380794
63268167 104 18342745104476390282
69090 78 18410568500984889263
7364860 26 18273496762805743934
74978 22 18271248325856168000
77492 1 17417806219102200911

> <PUBCHEM_SHAPE_MULTIPOLES>
343.98
5.5
2.25
1.28
1.43
0.13
0.17
-0.68
0.56
-0.84
-0.22
0.27
-0.43
-0.18

> <PUBCHEM_SHAPE_SELFOVERLAP>
710.448

> <PUBCHEM_SHAPE_VOLUME>
196.7

> <PUBCHEM_COORDINATE_TYPE>
2
5
10

$$$$
