18000835
  -OEChem-11232109093D

 20 20  0     0  0  0  0  0  0999 V2000
   -1.1743    0.9328   -0.4477 O   0  0  0  0  0  0  0  0  0  0  0  0
   -2.9601   -0.1231    0.4529 N   0  0  0  0  0  0  0  0  0  0  0  0
    1.6228    0.0836    0.1748 C   0  0  0  0  0  0  0  0  0  0  0  0
    0.5842   -0.7729   -0.5551 C   0  0  0  0  0  0  0  0  0  0  0  0
    3.0453   -0.3167   -0.2163 C   0  0  0  0  0  0  0  0  0  0  0  0
   -0.8218   -0.3594   -0.2000 C   0  0  0  0  0  0  0  0  0  0  0  0
    4.0801    0.5568    0.4747 C   0  0  0  0  0  0  0  0  0  0  0  0
   -1.9080   -0.9964    0.3465 C   0  0  0  0  0  0  0  0  0  0  0  0
   -2.4682    0.9954   -0.0299 C   0  0  0  0  0  0  0  0  0  0  0  0
    1.4929   -0.0199    1.2596 H   0  0  0  0  0  0  0  0  0  0  0  0
    1.4666    1.1437   -0.0617 H   0  0  0  0  0  0  0  0  0  0  0  0
    0.7241   -1.8300   -0.3000 H   0  0  0  0  0  0  0  0  0  0  0  0
    0.7107   -0.6784   -1.6400 H   0  0  0  0  0  0  0  0  0  0  0  0
    3.2227   -1.3655    0.0490 H   0  0  0  0  0  0  0  0  0  0  0  0
    3.1716   -0.2305   -1.3017 H   0  0  0  0  0  0  0  0  0  0  0  0
    3.9509    1.6090    0.2017 H   0  0  0  0  0  0  0  0  0  0  0  0
    5.0898    0.2517    0.1823 H   0  0  0  0  0  0  0  0  0  0  0  0
    4.0012    0.4717    1.5632 H   0  0  0  0  0  0  0  0  0  0  0  0
   -1.9898   -2.0246    0.6662 H   0  0  0  0  0  0  0  0  0  0  0  0
   -2.9623    1.9497   -0.1341 H   0  0  0  0  0  0  0  0  0  0  0  0
  1  6  1  0  0  0  0
  1  9  1  0  0  0  0
  2  8  1  0  0  0  0
  2  9  2  0  0  0  0
  3  4  1  0  0  0  0
  3  5  1  0  0  0  0
  3 10  1  0  0  0  0
  3 11  1  0  0  0  0
  4  6  1  0  0  0  0
  4 12  1  0  0  0  0
  4 13  1  0  0  0  0
  5  7  1  0  0  0  0
  5 14  1  0  0  0  0
  5 15  1  0  0  0  0
  6  8  2  0  0  0  0
  7 16  1  0  0  0  0
  7 17  1  0  0  0  0
  7 18  1  0  0  0  0
  8 19  1  0  0  0  0
  9 20  1  0  0  0  0
M  END
> <PUBCHEM_COMPOUND_CID>
18000835

> <PUBCHEM_CONFORMER_RMSD>
0.6

> <PUBCHEM_CONFORMER_DIVERSEORDER>
1
8
7
10
3
5
12
2
11
6
13
4
9

> <PUBCHEM_MMFF94_PARTIAL_CHARGES>
8
1 -0.28
19 0.15
2 -0.57
20 0.15
4 0.18
6 -0.04
8 0.08
9 0.33

> <PUBCHEM_EFFECTIVE_ROTOR_COUNT>
3

> <PUBCHEM_PHARMACOPHORE_FEATURES>
2
1 7 hydrophobe
5 1 2 6 8 9 rings

> <PUBCHEM_HEAVY_ATOM_COUNT>
9

> <PUBCHEM_ATOM_DEF_STEREO_COUNT>
0

> <PUBCHEM_ATOM_UDEF_STEREO_COUNT>
0

> <PUBCHEM_BOND_DEF_STEREO_COUNT>
0

> <PUBCHEM_BOND_UDEF_STEREO_COUNT>
0

> <PUBCHEM_ISOTOPIC_ATOM_COUNT>
0

> <PUBCHEM_COMPONENT_COUNT>
1

> <PUBCHEM_CACTVS_TAUTO_COUNT>
1

> <PUBCHEM_CONFORMER_ID>
0112ABC300000001

> <PUBCHEM_MMFF94_ENERGY>
-0.1161

> <PUBCHEM_FEATURE_SELFOVERLAP>
10.148

> <PUBCHEM_SHAPE_FINGERPRINT>
10857977 72 18334296495693321361
12932764 1 17917703613414555278
14325111 11 18413107251737138302
14390081 3 18272369741632569728
20645464 45 18343588425399376047
20871998 184 18269845366199690303
21119208 17 12679466387035468064
3248919 1 17603309258473457238
369184 2 18040714749331249011

> <PUBCHEM_SHAPE_MULTIPOLES>
174.37
6.12
1.04
0.72
4.86
0.04
0
1.17
1.06
-0.38
-0.03
0.03
-0.02
0.33

> <PUBCHEM_SHAPE_SELFOVERLAP>
342.118

> <PUBCHEM_SHAPE_VOLUME>
107.5

> <PUBCHEM_COORDINATE_TYPE>
2
5
10

$$$$
