18185507
  -OEChem-11232109173D

 23 22  0     1  0  0  0  0  0999 V2000
    0.2079   -0.1679    1.0831 S   0  0  0  0  0  0  0  0  0  0  0  0
    2.5798    1.6058    0.8195 S   0  0  0  0  0  0  0  0  0  0  0  0
   -2.3318   -1.6850    0.7691 S   0  0  0  0  0  0  0  0  0  0  0  0
    1.3375    0.6389   -0.1129 C   0  0  1  0  0  0  0  0  0  0  0  0
   -1.2836   -0.3754    0.0371 C   0  0  1  0  0  0  0  0  0  0  0  0
    2.0022   -0.3422   -1.0941 C   0  0  0  0  0  0  0  0  0  0  0  0
   -2.0971    0.9228   -0.0700 C   0  0  0  0  0  0  0  0  0  0  0  0
    2.9287   -1.3949   -0.4927 C   0  0  0  0  0  0  0  0  0  0  0  0
   -3.3435    0.7979   -0.9390 C   0  0  0  0  0  0  0  0  0  0  0  0
    0.7643    1.3721   -0.6872 H   0  0  0  0  0  0  0  0  0  0  0  0
   -0.9856   -0.7242   -0.9555 H   0  0  0  0  0  0  0  0  0  0  0  0
    2.5776    0.2330   -1.8318 H   0  0  0  0  0  0  0  0  0  0  0  0
    1.2260   -0.8587   -1.6721 H   0  0  0  0  0  0  0  0  0  0  0  0
   -2.3936    1.2846    0.9233 H   0  0  0  0  0  0  0  0  0  0  0  0
   -1.4716    1.7092   -0.5092 H   0  0  0  0  0  0  0  0  0  0  0  0
    2.4041   -2.0336    0.2237 H   0  0  0  0  0  0  0  0  0  0  0  0
    3.3158   -2.0417   -1.2874 H   0  0  0  0  0  0  0  0  0  0  0  0
    3.7901   -0.9447    0.0085 H   0  0  0  0  0  0  0  0  0  0  0  0
   -3.0991    0.3771   -1.9196 H   0  0  0  0  0  0  0  0  0  0  0  0
   -4.1153    0.1782   -0.4740 H   0  0  0  0  0  0  0  0  0  0  0  0
   -3.7819    1.7885   -1.1004 H   0  0  0  0  0  0  0  0  0  0  0  0
    3.1740    2.1619   -0.2465 H   0  0  0  0  0  0  0  0  0  0  0  0
   -2.5239   -1.0831    1.9520 H   0  0  0  0  0  0  0  0  0  0  0  0
  1  4  1  0  0  0  0
  1  5  1  0  0  0  0
  2  4  1  0  0  0  0
  2 22  1  0  0  0  0
  3  5  1  0  0  0  0
  3 23  1  0  0  0  0
  4  6  1  0  0  0  0
  4 10  1  0  0  0  0
  5  7  1  0  0  0  0
  5 11  1  0  0  0  0
  6  8  1  0  0  0  0
  6 12  1  0  0  0  0
  6 13  1  0  0  0  0
  7  9  1  0  0  0  0
  7 14  1  0  0  0  0
  7 15  1  0  0  0  0
  8 16  1  0  0  0  0
  8 17  1  0  0  0  0
  8 18  1  0  0  0  0
  9 19  1  0  0  0  0
  9 20  1  0  0  0  0
  9 21  1  0  0  0  0
M  END
> <PUBCHEM_COMPOUND_CID>
18185507

> <PUBCHEM_CONFORMER_RMSD>
0.6

> <PUBCHEM_CONFORMER_DIVERSEORDER>
1
48
22
59
90
29
9
88
12
3
40
28
62
79
91
47
4
43
41
14
54
5
42
66
25
74
8
27
44
51
77
87
7
50
75
21
17
71
11
2
82
46
53
34
69
65
73
86
26
89
78
20
24
37
94
80
63
30
13
56
68
84
85
35
45
81
61
19
32
18
55
16
49
23
60
64
38
31
96
67
10
39
95
33
72
93
15
36
97
83
6
52
57
92
98
76
58
70

> <PUBCHEM_MMFF94_PARTIAL_CHARGES>
7
1 -0.46
2 -0.41
22 0.18
23 0.18
3 -0.41
4 0.46
5 0.46

> <PUBCHEM_EFFECTIVE_ROTOR_COUNT>
4

> <PUBCHEM_PHARMACOPHORE_FEATURES>
2
1 8 hydrophobe
1 9 hydrophobe

> <PUBCHEM_HEAVY_ATOM_COUNT>
9

> <PUBCHEM_ATOM_DEF_STEREO_COUNT>
0

> <PUBCHEM_ATOM_UDEF_STEREO_COUNT>
2

> <PUBCHEM_BOND_DEF_STEREO_COUNT>
0

> <PUBCHEM_BOND_UDEF_STEREO_COUNT>
0

> <PUBCHEM_ISOTOPIC_ATOM_COUNT>
0

> <PUBCHEM_COMPONENT_COUNT>
1

> <PUBCHEM_CACTVS_TAUTO_COUNT>
1

> <PUBCHEM_CONFORMER_ID>
01157D2300000001

> <PUBCHEM_MMFF94_ENERGY>
9.3345

> <PUBCHEM_FEATURE_SELFOVERLAP>
10.149

> <PUBCHEM_SHAPE_FINGERPRINT>
12716758 59 18333452032272079107
12932741 1 18411140250909315245
12932764 1 18340782531902416942
14390081 3 18260540126368665257
15219456 202 18341332287853253760
15310529 11 18059578043694596589
15775835 57 16660081109341020765
18186145 218 18336817586141968805
18380122 1 18051136092068976787
19973954 147 18410862095863592937
20201158 50 18201159845353397470
20653085 51 17749685025123099053
20671657 53 17916875595333178430
20711985 327 14692565507669860010
20711985 344 17123980252599926422
22802520 49 18411706469422591137
23211744 41 18122336054426715752
23557571 272 18262236754203582465
3248919 1 18131912667360146377
5084963 1 18115605827541042139
81228 2 17969510496960746851
88987 49 17821725074066460199

> <PUBCHEM_SHAPE_MULTIPOLES>
196.76
5.46
1.74
1.19
0.91
0.24
0.03
-0.3
-0.95
-0.2
0.2
-0.11
0.03
1.39

> <PUBCHEM_SHAPE_SELFOVERLAP>
318.096

> <PUBCHEM_SHAPE_VOLUME>
138.9

> <PUBCHEM_COORDINATE_TYPE>
2
5
10

$$$$
