184493
  -OEChem-11232108423D

 41 41  0     0  0  0  0  0  0999 V2000
   -0.5498   -0.3075    1.4358 O   0  0  0  0  0  0  0  0  0  0  0  0
   -0.3375   -0.3088    0.0039 C   0  0  0  0  0  0  0  0  0  0  0  0
   -0.2391    1.2298   -0.4372 C   0  0  0  0  0  0  0  0  0  0  0  0
    0.9257   -1.2538   -0.2690 C   0  0  0  0  0  0  0  0  0  0  0  0
    1.1532    1.9003   -0.2718 C   0  0  0  0  0  0  0  0  0  0  0  0
    2.0864   -1.0221    0.7483 C   0  0  0  0  0  0  0  0  0  0  0  0
    1.9613    1.5298    0.9618 C   0  0  0  0  0  0  0  0  0  0  0  0
    2.8296    0.3048    0.7262 C   0  0  0  0  0  0  0  0  0  0  0  0
   -1.6353   -0.9338   -0.5802 C   0  0  0  0  0  0  0  0  0  0  0  0
   -0.6514    1.4509   -1.9192 C   0  0  0  0  0  0  0  0  0  0  0  0
   -1.2347    2.0918    0.4041 C   0  0  0  0  0  0  0  0  0  0  0  0
    0.5438   -2.7573   -0.0604 C   0  0  0  0  0  0  0  0  0  0  0  0
    1.4548   -1.1756   -1.7140 C   0  0  0  0  0  0  0  0  0  0  0  0
   -2.8294   -0.2059   -0.0745 C   0  0  0  0  0  0  0  0  0  0  0  0
   -3.4777   -0.5428    1.0461 C   0  0  0  0  0  0  0  0  0  0  0  0
    1.0309    2.9927   -0.2664 H   0  0  0  0  0  0  0  0  0  0  0  0
    1.7669    1.7262   -1.1632 H   0  0  0  0  0  0  0  0  0  0  0  0
    2.8494   -1.7984    0.5916 H   0  0  0  0  0  0  0  0  0  0  0  0
    1.7211   -1.1942    1.7695 H   0  0  0  0  0  0  0  0  0  0  0  0
    1.3314    1.4173    1.8495 H   0  0  0  0  0  0  0  0  0  0  0  0
    2.6381    2.3672    1.1771 H   0  0  0  0  0  0  0  0  0  0  0  0
    3.3927    0.4074   -0.2090 H   0  0  0  0  0  0  0  0  0  0  0  0
    3.5862    0.2709    1.5213 H   0  0  0  0  0  0  0  0  0  0  0  0
   -1.7648   -1.9688   -0.2469 H   0  0  0  0  0  0  0  0  0  0  0  0
   -1.6309   -0.9744   -1.6738 H   0  0  0  0  0  0  0  0  0  0  0  0
   -1.7044    1.2437   -2.1216 H   0  0  0  0  0  0  0  0  0  0  0  0
   -0.4962    2.4994   -2.2048 H   0  0  0  0  0  0  0  0  0  0  0  0
   -0.0556    0.8480   -2.6077 H   0  0  0  0  0  0  0  0  0  0  0  0
   -1.2162    1.8716    1.4750 H   0  0  0  0  0  0  0  0  0  0  0  0
   -0.9612    3.1541    0.3340 H   0  0  0  0  0  0  0  0  0  0  0  0
   -2.2634    2.0981    0.0490 H   0  0  0  0  0  0  0  0  0  0  0  0
   -0.1267   -3.1254   -0.8444 H   0  0  0  0  0  0  0  0  0  0  0  0
    1.4331   -3.3987   -0.1120 H   0  0  0  0  0  0  0  0  0  0  0  0
    0.0821   -2.9392    0.9148 H   0  0  0  0  0  0  0  0  0  0  0  0
    1.8781   -0.2040   -1.9658 H   0  0  0  0  0  0  0  0  0  0  0  0
    2.2544   -1.9087   -1.8767 H   0  0  0  0  0  0  0  0  0  0  0  0
    0.6647   -1.3992   -2.4385 H   0  0  0  0  0  0  0  0  0  0  0  0
   -0.7143   -1.2176    1.7310 H   0  0  0  0  0  0  0  0  0  0  0  0
   -3.3015    0.5247   -0.7247 H   0  0  0  0  0  0  0  0  0  0  0  0
   -4.3922   -0.0297    1.3239 H   0  0  0  0  0  0  0  0  0  0  0  0
   -3.1214   -1.3297    1.7013 H   0  0  0  0  0  0  0  0  0  0  0  0
  1  2  1  0  0  0  0
  1 38  1  0  0  0  0
  2  3  1  0  0  0  0
  2  4  1  0  0  0  0
  2  9  1  0  0  0  0
  3  5  1  0  0  0  0
  3 10  1  0  0  0  0
  3 11  1  0  0  0  0
  4  6  1  0  0  0  0
  4 12  1  0  0  0  0
  4 13  1  0  0  0  0
  5  7  1  0  0  0  0
  5 16  1  0  0  0  0
  5 17  1  0  0  0  0
  6  8  1  0  0  0  0
  6 18  1  0  0  0  0
  6 19  1  0  0  0  0
  7  8  1  0  0  0  0
  7 20  1  0  0  0  0
  7 21  1  0  0  0  0
  8 22  1  0  0  0  0
  8 23  1  0  0  0  0
  9 14  1  0  0  0  0
  9 24  1  0  0  0  0
  9 25  1  0  0  0  0
 10 26  1  0  0  0  0
 10 27  1  0  0  0  0
 10 28  1  0  0  0  0
 11 29  1  0  0  0  0
 11 30  1  0  0  0  0
 11 31  1  0  0  0  0
 12 32  1  0  0  0  0
 12 33  1  0  0  0  0
 12 34  1  0  0  0  0
 13 35  1  0  0  0  0
 13 36  1  0  0  0  0
 13 37  1  0  0  0  0
 14 15  2  0  0  0  0
 14 39  1  0  0  0  0
 15 40  1  0  0  0  0
 15 41  1  0  0  0  0
M  END
> <PUBCHEM_COMPOUND_CID>
184493

> <PUBCHEM_CONFORMER_RMSD>
0.6

> <PUBCHEM_CONFORMER_DIVERSEORDER>
1
7
3
10
4
9
5
8
2
6

> <PUBCHEM_MMFF94_PARTIAL_CHARGES>
9
1 -0.68
14 -0.29
15 -0.3
2 0.28
38 0.4
39 0.15
40 0.15
41 0.15
9 0.14

> <PUBCHEM_EFFECTIVE_ROTOR_COUNT>
3.4

> <PUBCHEM_PHARMACOPHORE_FEATURES>
6
1 1 acceptor
1 1 donor
1 15 hydrophobe
3 3 10 11 hydrophobe
3 4 12 13 hydrophobe
7 2 3 4 5 6 7 8 rings

> <PUBCHEM_HEAVY_ATOM_COUNT>
15

> <PUBCHEM_ATOM_DEF_STEREO_COUNT>
0

> <PUBCHEM_ATOM_UDEF_STEREO_COUNT>
0

> <PUBCHEM_BOND_DEF_STEREO_COUNT>
0

> <PUBCHEM_BOND_UDEF_STEREO_COUNT>
0

> <PUBCHEM_ISOTOPIC_ATOM_COUNT>
0

> <PUBCHEM_COMPONENT_COUNT>
1

> <PUBCHEM_CACTVS_TAUTO_COUNT>
1

> <PUBCHEM_CONFORMER_ID>
0002D0AD00000001

> <PUBCHEM_MMFF94_ENERGY>
81.7815

> <PUBCHEM_FEATURE_SELFOVERLAP>
30.446

> <PUBCHEM_SHAPE_FINGERPRINT>
10219947 1 18337667624208890451
11067466 332 18187097147310468030
11086676 242 18335988592459268585
11132069 177 18270949250056025274
11471102 22 18261679267532821579
12382932 28 18270116941281447811
12423570 1 17102298978057797878
12696612 119 18411980234906703192
13172582 1 18265327489863046795
144361 1 18190488036980927284
14761567 1 17544757824610523654
14817 1 9687917877391912284
15490181 8 17837502103994926415
15775835 57 18058729259452047168
15881359 60 17832663050257745104
161256 15 18270410399032213445
16945 1 18340196470650575207
20511035 2 17683812385717730649
21061003 4 18270393880630398914
21501502 16 18194116322315499376
22802520 49 17483118137668873654
2334 1 18050843626297634414
23419403 2 17897979422420206206
23559900 14 17044288672259425926
241688 4 18044377123541986672
2748010 2 18266158557835206820
430814 3 16845288379973206550
5084963 1 18131055057244535802
528886 8 18269542995942697379
81228 2 17825112506652691101

> <PUBCHEM_SHAPE_MULTIPOLES>
302.82
3.73
2.45
1.43
1.86
0.17
-0.47
0.34
1.39
-0.6
-0.24
-0.04
-0.14
0.46

> <PUBCHEM_SHAPE_SELFOVERLAP>
598.097

> <PUBCHEM_SHAPE_VOLUME>
180.7

> <PUBCHEM_COORDINATE_TYPE>
2
5
10

$$$$
