184852
  -OEChem-11232109053D

 20 19  0     0  0  0  0  0  0999 V2000
   -4.9115   -0.6493   -0.0069 S   0  0  0  0  0  0  0  0  0  0  0  0
   -2.4488    0.6022    0.1625 N   0  0  0  0  0  0  0  0  0  0  0  0
    1.2296   -0.2532   -0.2352 C   0  0  0  0  0  0  0  0  0  0  0  0
   -0.0225    0.5875    0.0186 C   0  0  0  0  0  0  0  0  0  0  0  0
    2.5010    0.5856   -0.0894 C   0  0  0  0  0  0  0  0  0  0  0  0
   -1.2882   -0.2536   -0.0884 C   0  0  0  0  0  0  0  0  0  0  0  0
    3.7276   -0.2310   -0.3701 C   0  0  0  0  0  0  0  0  0  0  0  0
    4.7014   -0.4486    0.5210 C   0  0  0  0  0  0  0  0  0  0  0  0
   -3.4888    0.0605    0.0878 C   0  0  0  0  0  0  0  0  0  0  0  0
    1.2585   -1.0918    0.4721 H   0  0  0  0  0  0  0  0  0  0  0  0
    1.1809   -0.6855   -1.2428 H   0  0  0  0  0  0  0  0  0  0  0  0
   -0.0668    1.4141   -0.7015 H   0  0  0  0  0  0  0  0  0  0  0  0
    0.0312    1.0422    1.0158 H   0  0  0  0  0  0  0  0  0  0  0  0
    2.4748    1.4243   -0.7954 H   0  0  0  0  0  0  0  0  0  0  0  0
    2.5439    1.0185    0.9176 H   0  0  0  0  0  0  0  0  0  0  0  0
   -1.2478   -1.0708    0.6443 H   0  0  0  0  0  0  0  0  0  0  0  0
   -1.3466   -0.6995   -1.0906 H   0  0  0  0  0  0  0  0  0  0  0  0
    3.8270   -0.6581   -1.3647 H   0  0  0  0  0  0  0  0  0  0  0  0
    5.5672   -1.0446    0.2536 H   0  0  0  0  0  0  0  0  0  0  0  0
    4.6538   -0.0411    1.5246 H   0  0  0  0  0  0  0  0  0  0  0  0
  1  9  2  0  0  0  0
  2  6  1  0  0  0  0
  2  9  2  0  0  0  0
  3  4  1  0  0  0  0
  3  5  1  0  0  0  0
  3 10  1  0  0  0  0
  3 11  1  0  0  0  0
  4  6  1  0  0  0  0
  4 12  1  0  0  0  0
  4 13  1  0  0  0  0
  5  7  1  0  0  0  0
  5 14  1  0  0  0  0
  5 15  1  0  0  0  0
  6 16  1  0  0  0  0
  6 17  1  0  0  0  0
  7  8  2  0  0  0  0
  7 18  1  0  0  0  0
  8 19  1  0  0  0  0
  8 20  1  0  0  0  0
M  END
> <PUBCHEM_COMPOUND_CID>
184852

> <PUBCHEM_CONFORMER_RMSD>
0.6

> <PUBCHEM_CONFORMER_DIVERSEORDER>
1
89
66
94
76
2
90
84
7
78
70
12
83
71
85
80
96
46
88
5
95
29
74
6
17
72
34
69
93
3
81
92
8
82
54
4
65
16
47
49
11
31
42
86
67
51
37
87
79
75
60
43
77
53
62
58
28
23
24
59
56
33
38
22
9
21
91
68
64
10
52
40
36
18
73
32
35
39
57
15
25
63
55
48
27
45
30
41
61
44
19
26
13
14
50
20

> <PUBCHEM_MMFF94_PARTIAL_CHARGES>
10
1 -0.27
18 0.15
19 0.15
2 -0.55
20 0.15
5 0.14
6 0.25
7 -0.29
8 -0.3
9 0.57

> <PUBCHEM_EFFECTIVE_ROTOR_COUNT>
5

> <PUBCHEM_PHARMACOPHORE_FEATURES>
4
1 1 acceptor
1 2 acceptor
1 8 hydrophobe
4 3 4 5 7 hydrophobe

> <PUBCHEM_HEAVY_ATOM_COUNT>
9

> <PUBCHEM_ATOM_DEF_STEREO_COUNT>
0

> <PUBCHEM_ATOM_UDEF_STEREO_COUNT>
0

> <PUBCHEM_BOND_DEF_STEREO_COUNT>
0

> <PUBCHEM_BOND_UDEF_STEREO_COUNT>
0

> <PUBCHEM_ISOTOPIC_ATOM_COUNT>
0

> <PUBCHEM_COMPONENT_COUNT>
1

> <PUBCHEM_CACTVS_TAUTO_COUNT>
1

> <PUBCHEM_CONFORMER_ID>
0002D21400000001

> <PUBCHEM_MMFF94_ENERGY>
2.7989

> <PUBCHEM_FEATURE_SELFOVERLAP>
20.303

> <PUBCHEM_SHAPE_FINGERPRINT>
11062470 55 10879993557751508556
13690532 89 18259703401971782803
14123238 8 16559030501801157893
14252887 29 17275114911664538814
15242439 84 13334737929330827612
17834072 33 18114748238741746542
18342897 14 11455891364554928475
190213 19 17918277536566234764
20645477 70 11819538325630123544
20719005 15 18411138038922107991
20767249 213 11600010942852278051
20828058 44 17560801056601264215
21119208 17 14273456980808146099
22485316 2 17967530185755063987
23402539 116 18411412908798267405
23402655 69 11097852995197760650
42 15 18341614806396188898
42788 4 18410856563966489837
449060 50 14908179759325156876

> <PUBCHEM_SHAPE_MULTIPOLES>
184.08
10.77
0.82
0.67
1.64
0
0
2.54
0.77
0.08
0.01
-0.17
0.03
-0.13

> <PUBCHEM_SHAPE_SELFOVERLAP>
326.398

> <PUBCHEM_SHAPE_VOLUME>
119.8

> <PUBCHEM_COORDINATE_TYPE>
2
5
10

$$$$
