18598146
  -OEChem-11232109273D

 31 32  0     0  0  0  0  0  0999 V2000
   -1.2717   -0.4427   -0.6672 O   0  0  0  0  0  0  0  0  0  0  0  0
   -3.2045   -1.6720   -0.7797 O   0  0  0  0  0  0  0  0  0  0  0  0
   -0.7619    0.6178    0.1659 C   0  0  0  0  0  0  0  0  0  0  0  0
    0.0715    0.0041    1.3051 C   0  0  0  0  0  0  0  0  0  0  0  0
    0.0923    1.5626   -0.6882 C   0  0  0  0  0  0  0  0  0  0  0  0
    2.1954    0.3018   -0.0455 C   0  0  0  0  0  0  0  0  0  0  0  0
    1.3484   -0.6640    0.7911 C   0  0  0  0  0  0  0  0  0  0  0  0
    1.3707    0.8924   -1.1948 C   0  0  0  0  0  0  0  0  0  0  0  0
   -2.0213    1.3048    0.6755 C   0  0  0  0  0  0  0  0  0  0  0  0
    3.4419   -0.4000   -0.5815 C   0  0  0  0  0  0  0  0  0  0  0  0
   -3.0175    0.1723    0.7777 C   0  0  0  0  0  0  0  0  0  0  0  0
   -2.5534   -0.7544   -0.3049 C   0  0  0  0  0  0  0  0  0  0  0  0
    4.3099   -0.9227    0.5465 C   0  0  0  0  0  0  0  0  0  0  0  0
   -0.5092   -0.7519    1.8472 H   0  0  0  0  0  0  0  0  0  0  0  0
    0.3419    0.7848    2.0274 H   0  0  0  0  0  0  0  0  0  0  0  0
    0.3588    2.4525   -0.1042 H   0  0  0  0  0  0  0  0  0  0  0  0
   -0.4792    1.9030   -1.5607 H   0  0  0  0  0  0  0  0  0  0  0  0
    2.5135    1.1307    0.6021 H   0  0  0  0  0  0  0  0  0  0  0  0
    1.9052   -1.0187    1.6649 H   0  0  0  0  0  0  0  0  0  0  0  0
    1.0868   -1.5491    0.1977 H   0  0  0  0  0  0  0  0  0  0  0  0
    1.1097    0.1043   -1.9127 H   0  0  0  0  0  0  0  0  0  0  0  0
    1.9687    1.6307   -1.7424 H   0  0  0  0  0  0  0  0  0  0  0  0
   -2.3903    2.0304   -0.0610 H   0  0  0  0  0  0  0  0  0  0  0  0
   -1.8821    1.8381    1.6208 H   0  0  0  0  0  0  0  0  0  0  0  0
    4.0290    0.3095   -1.1775 H   0  0  0  0  0  0  0  0  0  0  0  0
    3.1695   -1.2270   -1.2480 H   0  0  0  0  0  0  0  0  0  0  0  0
   -4.0363    0.5182    0.5885 H   0  0  0  0  0  0  0  0  0  0  0  0
   -2.9580   -0.3404    1.7416 H   0  0  0  0  0  0  0  0  0  0  0  0
    3.8622   -1.7888    1.0423 H   0  0  0  0  0  0  0  0  0  0  0  0
    5.2755   -1.2516    0.1470 H   0  0  0  0  0  0  0  0  0  0  0  0
    4.5068   -0.1494    1.2958 H   0  0  0  0  0  0  0  0  0  0  0  0
  1  3  1  0  0  0  0
  1 12  1  0  0  0  0
  2 12  2  0  0  0  0
  3  4  1  0  0  0  0
  3  5  1  0  0  0  0
  3  9  1  0  0  0  0
  4  7  1  0  0  0  0
  4 14  1  0  0  0  0
  4 15  1  0  0  0  0
  5  8  1  0  0  0  0
  5 16  1  0  0  0  0
  5 17  1  0  0  0  0
  6  7  1  0  0  0  0
  6  8  1  0  0  0  0
  6 10  1  0  0  0  0
  6 18  1  0  0  0  0
  7 19  1  0  0  0  0
  7 20  1  0  0  0  0
  8 21  1  0  0  0  0
  8 22  1  0  0  0  0
  9 11  1  0  0  0  0
  9 23  1  0  0  0  0
  9 24  1  0  0  0  0
 10 13  1  0  0  0  0
 10 25  1  0  0  0  0
 10 26  1  0  0  0  0
 11 12  1  0  0  0  0
 11 27  1  0  0  0  0
 11 28  1  0  0  0  0
 13 29  1  0  0  0  0
 13 30  1  0  0  0  0
 13 31  1  0  0  0  0
M  END
> <PUBCHEM_COMPOUND_CID>
18598146

> <PUBCHEM_CONFORMER_RMSD>
0.6

> <PUBCHEM_CONFORMER_DIVERSEORDER>
1
5
7
6
4
2
3

> <PUBCHEM_MMFF94_PARTIAL_CHARGES>
5
1 -0.43
11 0.06
12 0.66
2 -0.57
3 0.28

> <PUBCHEM_EFFECTIVE_ROTOR_COUNT>
2.6

> <PUBCHEM_PHARMACOPHORE_FEATURES>
4
1 13 hydrophobe
1 2 acceptor
5 1 3 9 11 12 rings
6 3 4 5 6 7 8 rings

> <PUBCHEM_HEAVY_ATOM_COUNT>
13

> <PUBCHEM_ATOM_DEF_STEREO_COUNT>
0

> <PUBCHEM_ATOM_UDEF_STEREO_COUNT>
0

> <PUBCHEM_BOND_DEF_STEREO_COUNT>
0

> <PUBCHEM_BOND_UDEF_STEREO_COUNT>
0

> <PUBCHEM_ISOTOPIC_ATOM_COUNT>
0

> <PUBCHEM_COMPONENT_COUNT>
1

> <PUBCHEM_CACTVS_TAUTO_COUNT>
2

> <PUBCHEM_CONFORMER_ID>
011BC90200000001

> <PUBCHEM_MMFF94_ENERGY>
17.8763

> <PUBCHEM_FEATURE_SELFOVERLAP>
20.306

> <PUBCHEM_SHAPE_FINGERPRINT>
10062212 137 17750225920519533186
10465860 250 17274819125840902250
10857977 72 16415206701655473357
11206711 2 17023179384191232204
11769659 78 18343016713812878126
12382932 28 13183020717871071700
124424 183 16630243606431768521
12500047 106 18058727979530706737
12897270 3 16226040115489781655
12932764 1 18408603630508441328
13024252 1 16298396716745785705
13581323 91 17988928868196266924
14128692 85 18410855511831390593
15219456 202 15554177981849675548
15653759 3 17060338521970771722
16945 1 17987812821029005097
17844478 74 15626230104299650664
18186145 218 15936130768008166316
19026448 4 17489870402073615528
19026448 5 18342745121877720880
19422 9 18411987987217053982
200 152 17749102271228372370
201361 129 9655312431379850188
20201158 50 16950004716435799298
20279233 1 16128660734278105805
20361792 2 18113056043028255420
20645464 45 16272210773509075569
20653085 51 11674887662606313038
21293036 1 16588031220838230028
22112679 90 18339094738657095765
23402539 116 17822289042502176050
23559900 14 17560524980878440470
25 1 15647601277538665005
2748010 2 17025459938979820816
369184 2 16271929276851975501
449060 23 18410295791804282350
568465 68 15482674631835097414
77492 1 18336839648797955652

> <PUBCHEM_SHAPE_MULTIPOLES>
255.8
6.05
1.38
1.14
3.36
0.19
0.05
-2.51
-0.2
-0.33
-0.25
-0.26
-0.06
-0.87

> <PUBCHEM_SHAPE_SELFOVERLAP>
524.053

> <PUBCHEM_SHAPE_VOLUME>
148.6

> <PUBCHEM_COORDINATE_TYPE>
2
5
10

$$$$
