18698
  -OEChem-11232109133D

 27 27  0     1  0  0  0  0  0999 V2000
    0.5871   -0.6597   -0.0496 O   0  0  0  0  0  0  0  0  0  0  0  0
    2.1478   -2.2834   -0.0200 O   0  0  0  0  0  0  0  0  0  0  0  0
    0.2096    0.6886    0.3110 C   0  0  1  0  0  0  0  0  0  0  0  0
    1.2154    1.7228   -0.1688 C   0  0  0  0  0  0  0  0  0  0  0  0
   -1.1722    0.9488   -0.2738 C   0  0  0  0  0  0  0  0  0  0  0  0
    2.5862    1.3240    0.3375 C   0  0  0  0  0  0  0  0  0  0  0  0
   -2.1938   -0.0657    0.2365 C   0  0  0  0  0  0  0  0  0  0  0  0
    2.9473   -0.0419   -0.2077 C   0  0  0  0  0  0  0  0  0  0  0  0
   -3.5859    0.2192   -0.3266 C   0  0  0  0  0  0  0  0  0  0  0  0
    1.8726   -1.0856   -0.0426 C   0  0  0  0  0  0  0  0  0  0  0  0
   -4.6141   -0.7671    0.2042 C   0  0  0  0  0  0  0  0  0  0  0  0
    0.1456    0.7159    1.4063 H   0  0  0  0  0  0  0  0  0  0  0  0
    0.9485    2.7199    0.1981 H   0  0  0  0  0  0  0  0  0  0  0  0
    1.2318    1.7646   -1.2650 H   0  0  0  0  0  0  0  0  0  0  0  0
   -1.1296    0.8803   -1.3683 H   0  0  0  0  0  0  0  0  0  0  0  0
   -1.4985    1.9645   -0.0197 H   0  0  0  0  0  0  0  0  0  0  0  0
    2.5872    1.3020    1.4341 H   0  0  0  0  0  0  0  0  0  0  0  0
    3.3352    2.0609    0.0275 H   0  0  0  0  0  0  0  0  0  0  0  0
   -1.8972   -1.0829   -0.0454 H   0  0  0  0  0  0  0  0  0  0  0  0
   -2.2291   -0.0315    1.3324 H   0  0  0  0  0  0  0  0  0  0  0  0
    3.8519   -0.3973    0.2983 H   0  0  0  0  0  0  0  0  0  0  0  0
    3.1661    0.0290   -1.2796 H   0  0  0  0  0  0  0  0  0  0  0  0
   -3.5637    0.1629   -1.4211 H   0  0  0  0  0  0  0  0  0  0  0  0
   -3.8952    1.2366   -0.0601 H   0  0  0  0  0  0  0  0  0  0  0  0
   -4.6845   -0.7115    1.2952 H   0  0  0  0  0  0  0  0  0  0  0  0
   -4.3522   -1.7935   -0.0717 H   0  0  0  0  0  0  0  0  0  0  0  0
   -5.6020   -0.5452   -0.2116 H   0  0  0  0  0  0  0  0  0  0  0  0
  1  3  1  0  0  0  0
  1 10  1  0  0  0  0
  2 10  2  0  0  0  0
  3  4  1  0  0  0  0
  3  5  1  0  0  0  0
  3 12  1  0  0  0  0
  4  6  1  0  0  0  0
  4 13  1  0  0  0  0
  4 14  1  0  0  0  0
  5  7  1  0  0  0  0
  5 15  1  0  0  0  0
  5 16  1  0  0  0  0
  6  8  1  0  0  0  0
  6 17  1  0  0  0  0
  6 18  1  0  0  0  0
  7  9  1  0  0  0  0
  7 19  1  0  0  0  0
  7 20  1  0  0  0  0
  8 10  1  0  0  0  0
  8 21  1  0  0  0  0
  8 22  1  0  0  0  0
  9 11  1  0  0  0  0
  9 23  1  0  0  0  0
  9 24  1  0  0  0  0
 11 25  1  0  0  0  0
 11 26  1  0  0  0  0
 11 27  1  0  0  0  0
M  END
> <PUBCHEM_COMPOUND_CID>
18698

> <PUBCHEM_CONFORMER_RMSD>
0.6

> <PUBCHEM_CONFORMER_DIVERSEORDER>
1
29
38
15
39
5
33
26
19
37
12
36
9
3
34
2
40
31
35
17
25
11
18
27
16
21
10
22
8
23
4
32
14
7
13
6
30
28
20
24

> <PUBCHEM_MMFF94_PARTIAL_CHARGES>
5
1 -0.43
10 0.66
2 -0.57
3 0.28
8 0.06

> <PUBCHEM_EFFECTIVE_ROTOR_COUNT>
4

> <PUBCHEM_PHARMACOPHORE_FEATURES>
3
1 11 hydrophobe
1 2 acceptor
6 1 3 4 6 8 10 rings

> <PUBCHEM_HEAVY_ATOM_COUNT>
11

> <PUBCHEM_ATOM_DEF_STEREO_COUNT>
0

> <PUBCHEM_ATOM_UDEF_STEREO_COUNT>
1

> <PUBCHEM_BOND_DEF_STEREO_COUNT>
0

> <PUBCHEM_BOND_UDEF_STEREO_COUNT>
0

> <PUBCHEM_ISOTOPIC_ATOM_COUNT>
0

> <PUBCHEM_COMPONENT_COUNT>
1

> <PUBCHEM_CACTVS_TAUTO_COUNT>
1

> <PUBCHEM_CONFORMER_ID>
0000490A00000001

> <PUBCHEM_MMFF94_ENERGY>
9.5014

> <PUBCHEM_FEATURE_SELFOVERLAP>
15.223

> <PUBCHEM_SHAPE_FINGERPRINT>
11471102 20 18411134761936050677
12932764 1 17489576888245857193
14251717 144 18411416232834026335
14252887 29 17775012279726801070
14325111 11 18411136944190880581
15477762 27 18409449189220047703
15757776 16 18335699416785641330
17834074 16 18336550525085994507
18186145 218 17822006467982143637
20201158 50 18334577944900351827
20279233 1 18113339734503366467
20645477 70 18412256212884658807
20871998 22 18056201271977519030
21501502 16 18265901258781428201
21501925 9 18337942399068300474
22485316 2 18412822504369771095
23402655 69 18412259537025705077
23557571 272 17385714799546215997
33824 294 18408882970828481083
581208 293 18411133679635856049
81539 233 18188206610725531116

> <PUBCHEM_SHAPE_MULTIPOLES>
214.64
6.76
1.73
0.65
8.23
0.51
0
1.36
0.09
-1.52
-0.02
0.05
-0.05
0.23

> <PUBCHEM_SHAPE_SELFOVERLAP>
413.577

> <PUBCHEM_SHAPE_VOLUME>
131

> <PUBCHEM_COORDINATE_TYPE>
2
5
10

$$$$
