18974564
  -OEChem-11232109053D

 40 40  0     0  0  0  0  0  0999 V2000
    3.2245   -0.4041    0.0691 O   0  0  0  0  0  0  0  0  0  0  0  0
   -0.9780   -0.2211    0.6154 C   0  0  0  0  0  0  0  0  0  0  0  0
   -2.4678   -0.0289    0.3382 C   0  0  0  0  0  0  0  0  0  0  0  0
   -0.4006   -1.3321   -0.2728 C   0  0  0  0  0  0  0  0  0  0  0  0
   -0.2149    1.0952    0.4129 C   0  0  0  0  0  0  0  0  0  0  0  0
    1.0993   -1.5053   -0.0522 C   0  0  0  0  0  0  0  0  0  0  0  0
    1.2844    0.9154    0.6311 C   0  0  0  0  0  0  0  0  0  0  0  0
    1.8538   -0.1933   -0.2515 C   0  0  0  0  0  0  0  0  0  0  0  0
   -2.6450    0.4208   -1.1397 C   0  0  0  0  0  0  0  0  0  0  0  0
   -3.2021   -1.3606    0.5943 C   0  0  0  0  0  0  0  0  0  0  0  0
   -3.0240    1.0377    1.3031 C   0  0  0  0  0  0  0  0  0  0  0  0
   -4.0759    0.6641   -1.6041 C   0  0  0  0  0  0  0  0  0  0  0  0
    4.0529    0.5944   -0.5092 C   0  0  0  0  0  0  0  0  0  0  0  0
    5.4933    0.3179   -0.1345 C   0  0  0  0  0  0  0  0  0  0  0  0
   -0.8405   -0.5281    1.6625 H   0  0  0  0  0  0  0  0  0  0  0  0
   -0.5305   -1.1298   -1.3386 H   0  0  0  0  0  0  0  0  0  0  0  0
   -0.8715   -2.2977   -0.0636 H   0  0  0  0  0  0  0  0  0  0  0  0
   -0.5557    1.8667    1.1104 H   0  0  0  0  0  0  0  0  0  0  0  0
   -0.3258    1.4956   -0.5977 H   0  0  0  0  0  0  0  0  0  0  0  0
    1.2856   -1.8895    0.9594 H   0  0  0  0  0  0  0  0  0  0  0  0
    1.4957   -2.2675   -0.7343 H   0  0  0  0  0  0  0  0  0  0  0  0
    1.7810    1.8718    0.4379 H   0  0  0  0  0  0  0  0  0  0  0  0
    1.4841    0.6864    1.6862 H   0  0  0  0  0  0  0  0  0  0  0  0
    1.7604    0.0907   -1.3089 H   0  0  0  0  0  0  0  0  0  0  0  0
   -2.1248    1.3614   -1.3366 H   0  0  0  0  0  0  0  0  0  0  0  0
   -2.2432   -0.3203   -1.8351 H   0  0  0  0  0  0  0  0  0  0  0  0
   -4.2875   -1.2114    0.6289 H   0  0  0  0  0  0  0  0  0  0  0  0
   -3.0176   -2.0980   -0.1934 H   0  0  0  0  0  0  0  0  0  0  0  0
   -2.9108   -1.7994    1.5554 H   0  0  0  0  0  0  0  0  0  0  0  0
   -4.1201    1.0458    1.2923 H   0  0  0  0  0  0  0  0  0  0  0  0
   -2.7054    2.0502    1.0356 H   0  0  0  0  0  0  0  0  0  0  0  0
   -2.7177    0.8403    2.3366 H   0  0  0  0  0  0  0  0  0  0  0  0
   -4.6826   -0.2427   -1.5263 H   0  0  0  0  0  0  0  0  0  0  0  0
   -4.5575    1.4558   -1.0230 H   0  0  0  0  0  0  0  0  0  0  0  0
   -4.0814    0.9756   -2.6542 H   0  0  0  0  0  0  0  0  0  0  0  0
    3.9529    0.5753   -1.6004 H   0  0  0  0  0  0  0  0  0  0  0  0
    3.7862    1.5906   -0.1458 H   0  0  0  0  0  0  0  0  0  0  0  0
    5.6168    0.3246    0.9535 H   0  0  0  0  0  0  0  0  0  0  0  0
    5.7990   -0.6741   -0.4833 H   0  0  0  0  0  0  0  0  0  0  0  0
    6.1617    1.0660   -0.5699 H   0  0  0  0  0  0  0  0  0  0  0  0
  1  8  1  0  0  0  0
  1 13  1  0  0  0  0
  2  3  1  0  0  0  0
  2  4  1  0  0  0  0
  2  5  1  0  0  0  0
  2 15  1  0  0  0  0
  3  9  1  0  0  0  0
  3 10  1  0  0  0  0
  3 11  1  0  0  0  0
  4  6  1  0  0  0  0
  4 16  1  0  0  0  0
  4 17  1  0  0  0  0
  5  7  1  0  0  0  0
  5 18  1  0  0  0  0
  5 19  1  0  0  0  0
  6  8  1  0  0  0  0
  6 20  1  0  0  0  0
  6 21  1  0  0  0  0
  7  8  1  0  0  0  0
  7 22  1  0  0  0  0
  7 23  1  0  0  0  0
  8 24  1  0  0  0  0
  9 12  1  0  0  0  0
  9 25  1  0  0  0  0
  9 26  1  0  0  0  0
 10 27  1  0  0  0  0
 10 28  1  0  0  0  0
 10 29  1  0  0  0  0
 11 30  1  0  0  0  0
 11 31  1  0  0  0  0
 11 32  1  0  0  0  0
 12 33  1  0  0  0  0
 12 34  1  0  0  0  0
 12 35  1  0  0  0  0
 13 14  1  0  0  0  0
 13 36  1  0  0  0  0
 13 37  1  0  0  0  0
 14 38  1  0  0  0  0
 14 39  1  0  0  0  0
 14 40  1  0  0  0  0
M  END
> <PUBCHEM_COMPOUND_CID>
18974564

> <PUBCHEM_CONFORMER_RMSD>
0.6

> <PUBCHEM_CONFORMER_DIVERSEORDER>
4
37
19
32
13
26
12
39
29
33
45
27
20
8
43
16
10
22
14
47
6
15
49
48
38
50
9
28
44
46
34
25
11
41
24
36
7
40
5
35
3
31
17
1
2
42
18
21
30
23

> <PUBCHEM_MMFF94_PARTIAL_CHARGES>
3
1 -0.56
13 0.28
8 0.28

> <PUBCHEM_EFFECTIVE_ROTOR_COUNT>
5.2

> <PUBCHEM_PHARMACOPHORE_FEATURES>
4
1 1 acceptor
1 12 hydrophobe
3 3 10 11 hydrophobe
6 2 4 5 6 7 8 rings

> <PUBCHEM_HEAVY_ATOM_COUNT>
14

> <PUBCHEM_ATOM_DEF_STEREO_COUNT>
0

> <PUBCHEM_ATOM_UDEF_STEREO_COUNT>
0

> <PUBCHEM_BOND_DEF_STEREO_COUNT>
0

> <PUBCHEM_BOND_UDEF_STEREO_COUNT>
0

> <PUBCHEM_ISOTOPIC_ATOM_COUNT>
0

> <PUBCHEM_COMPONENT_COUNT>
1

> <PUBCHEM_CACTVS_TAUTO_COUNT>
1

> <PUBCHEM_CONFORMER_ID>
0121876400000004

> <PUBCHEM_MMFF94_ENERGY>
36.5663

> <PUBCHEM_FEATURE_SELFOVERLAP>
20.302

> <PUBCHEM_SHAPE_FINGERPRINT>
10014705 185 17967248719384177324
10680689 15 17385731304609434442
11401426 45 18273210902756828384
12138202 97 17895461567142872127
12500047 106 17530959194047090011
12932764 1 17749112175338515643
13214271 11 18202010914771736721
13288520 33 14979956981908184820
13760787 19 17530956982276063266
13760787 5 18341896247308651250
14289901 80 16660368120767933280
14911166 2 18272927237077778076
14943859 89 17168139018656244765
14993402 34 17703782626444800398
15219456 202 17822292327630099919
16945 1 17988637510584334163
17834072 33 15338831010852899376
18186145 218 18335431144754605046
19026448 4 16950287273781282626
19026448 5 16515396383127206594
200 152 17561077012381371597
20300324 65 17131833166108103792
20645477 56 17530680983667433077
20645477 70 18262231102169513234
20871999 31 18114174276840526127
231179 274 17967810531424258310
23402539 116 17632298956471382556
23402655 69 18058161740128403637
23493267 7 17894624855319785433
23557571 272 17676492752381057853
23559900 14 18272938250344433756
2748010 2 17983569985850638010
4175511 318 18113899368320048654
633830 44 18129958792596023046
8030462 33 18060411383630707323

> <PUBCHEM_SHAPE_MULTIPOLES>
282.24
8.67
1.36
1.15
9.12
0.34
0.21
-1.67
1.87
-0.46
-0.14
-1.38
-0.3
0.26

> <PUBCHEM_SHAPE_SELFOVERLAP>
545.208

> <PUBCHEM_SHAPE_VOLUME>
172.3

> <PUBCHEM_COORDINATE_TYPE>
2
5
10

$$$$
