196435
  -OEChem-11232108463D

 42 44  0     1  0  0  0  0  0999 V2000
    3.5139    0.5140    0.0401 O   0  0  0  0  0  0  0  0  0  0  0  0
   -0.0326   -0.7165    0.5025 C   0  0  2  0  0  0  0  0  0  0  0  0
   -0.6500    0.5369   -0.2133 C   0  0  1  0  0  0  0  0  0  0  0  0
    1.5154   -0.7306    0.3047 C   0  0  2  0  0  0  0  0  0  0  0  0
   -2.2188    0.5808   -0.3111 C   0  0  0  0  0  0  0  0  0  0  0  0
    2.2054    0.5939    0.6362 C   0  0  2  0  0  0  0  0  0  0  0  0
   -0.6584   -2.0018   -0.0899 C   0  0  0  0  0  0  0  0  0  0  0  0
   -0.0014    1.8390    0.3002 C   0  0  0  0  0  0  0  0  0  0  0  0
    1.5062    1.8289    0.0665 C   0  0  0  0  0  0  0  0  0  0  0  0
   -2.7466   -0.7877   -0.8146 C   0  0  0  0  0  0  0  0  0  0  0  0
   -2.1853   -1.9926   -0.0679 C   0  0  0  0  0  0  0  0  0  0  0  0
    2.0748   -1.0144   -1.0802 C   0  0  0  0  0  0  0  0  0  0  0  0
   -0.2556   -0.7270    2.0394 C   0  0  0  0  0  0  0  0  0  0  0  0
    3.5078   -0.5353   -0.9398 C   0  0  0  0  0  0  0  0  0  0  0  0
   -2.9324    0.9759    0.9955 C   0  0  0  0  0  0  0  0  0  0  0  0
   -2.6425    1.6364   -1.3683 C   0  0  0  0  0  0  0  0  0  0  0  0
   -0.3316    0.4536   -1.2636 H   0  0  0  0  0  0  0  0  0  0  0  0
    1.9435   -1.5057    0.9592 H   0  0  0  0  0  0  0  0  0  0  0  0
    2.3308    0.7105    1.7183 H   0  0  0  0  0  0  0  0  0  0  0  0
   -0.2941   -2.8851    0.4491 H   0  0  0  0  0  0  0  0  0  0  0  0
   -0.3437   -2.1269   -1.1333 H   0  0  0  0  0  0  0  0  0  0  0  0
   -0.2091    1.9951    1.3633 H   0  0  0  0  0  0  0  0  0  0  0  0
   -0.4099    2.7096   -0.2223 H   0  0  0  0  0  0  0  0  0  0  0  0
    1.7035    1.9083   -1.0109 H   0  0  0  0  0  0  0  0  0  0  0  0
    1.9557    2.7303    0.5015 H   0  0  0  0  0  0  0  0  0  0  0  0
   -2.4916   -0.9039   -1.8772 H   0  0  0  0  0  0  0  0  0  0  0  0
   -3.8426   -0.8137   -0.7629 H   0  0  0  0  0  0  0  0  0  0  0  0
   -2.5522   -2.9090   -0.5458 H   0  0  0  0  0  0  0  0  0  0  0  0
   -2.5633   -2.0166    0.9588 H   0  0  0  0  0  0  0  0  0  0  0  0
    1.5668   -0.4335   -1.8562 H   0  0  0  0  0  0  0  0  0  0  0  0
    2.0271   -2.0694   -1.3650 H   0  0  0  0  0  0  0  0  0  0  0  0
    0.2847   -1.5642    2.4995 H   0  0  0  0  0  0  0  0  0  0  0  0
    0.1055    0.1836    2.5247 H   0  0  0  0  0  0  0  0  0  0  0  0
   -1.2961   -0.8623    2.3269 H   0  0  0  0  0  0  0  0  0  0  0  0
    4.1583   -1.3360   -0.5726 H   0  0  0  0  0  0  0  0  0  0  0  0
    3.9166   -0.1602   -1.8824 H   0  0  0  0  0  0  0  0  0  0  0  0
   -2.8836    0.2057    1.7634 H   0  0  0  0  0  0  0  0  0  0  0  0
   -2.5306    1.9034    1.4145 H   0  0  0  0  0  0  0  0  0  0  0  0
   -4.0010    1.1472    0.8139 H   0  0  0  0  0  0  0  0  0  0  0  0
   -2.1244    1.4789   -2.3209 H   0  0  0  0  0  0  0  0  0  0  0  0
   -3.7191    1.5808   -1.5694 H   0  0  0  0  0  0  0  0  0  0  0  0
   -2.4326    2.6576   -1.0349 H   0  0  0  0  0  0  0  0  0  0  0  0
  1  6  1  0  0  0  0
  1 14  1  0  0  0  0
  2  3  1  0  0  0  0
  2  4  1  0  0  0  0
  2  7  1  0  0  0  0
  2 13  1  0  0  0  0
  3  5  1  0  0  0  0
  3  8  1  0  0  0  0
  3 17  1  0  0  0  0
  4  6  1  0  0  0  0
  4 12  1  0  0  0  0
  4 18  1  0  0  0  0
  5 10  1  0  0  0  0
  5 15  1  0  0  0  0
  5 16  1  0  0  0  0
  6  9  1  0  0  0  0
  6 19  1  0  0  0  0
  7 11  1  0  0  0  0
  7 20  1  0  0  0  0
  7 21  1  0  0  0  0
  8  9  1  0  0  0  0
  8 22  1  0  0  0  0
  8 23  1  0  0  0  0
  9 24  1  0  0  0  0
  9 25  1  0  0  0  0
 10 11  1  0  0  0  0
 10 26  1  0  0  0  0
 10 27  1  0  0  0  0
 11 28  1  0  0  0  0
 11 29  1  0  0  0  0
 12 14  1  0  0  0  0
 12 30  1  0  0  0  0
 12 31  1  0  0  0  0
 13 32  1  0  0  0  0
 13 33  1  0  0  0  0
 13 34  1  0  0  0  0
 14 35  1  0  0  0  0
 14 36  1  0  0  0  0
 15 37  1  0  0  0  0
 15 38  1  0  0  0  0
 15 39  1  0  0  0  0
 16 40  1  0  0  0  0
 16 41  1  0  0  0  0
 16 42  1  0  0  0  0
M  END
> <PUBCHEM_COMPOUND_CID>
196435

> <PUBCHEM_CONFORMER_RMSD>
0.6

> <PUBCHEM_CONFORMER_DIVERSEORDER>
3
22
19
25
11
2
10
14
12
21
17
13
26
18
6
5
4
24
15
1
20
8
23
7
9
16

> <PUBCHEM_MMFF94_PARTIAL_CHARGES>
3
1 -0.56
14 0.28
6 0.28

> <PUBCHEM_EFFECTIVE_ROTOR_COUNT>
1.8

> <PUBCHEM_PHARMACOPHORE_FEATURES>
5
1 1 acceptor
3 5 15 16 hydrophobe
5 1 4 6 12 14 rings
6 2 3 4 6 8 9 rings
6 2 3 5 7 10 11 rings

> <PUBCHEM_HEAVY_ATOM_COUNT>
16

> <PUBCHEM_ATOM_DEF_STEREO_COUNT>
0

> <PUBCHEM_ATOM_UDEF_STEREO_COUNT>
4

> <PUBCHEM_BOND_DEF_STEREO_COUNT>
0

> <PUBCHEM_BOND_UDEF_STEREO_COUNT>
0

> <PUBCHEM_ISOTOPIC_ATOM_COUNT>
0

> <PUBCHEM_COMPONENT_COUNT>
1

> <PUBCHEM_CACTVS_TAUTO_COUNT>
1

> <PUBCHEM_CONFORMER_ID>
0002FF5300000003

> <PUBCHEM_MMFF94_ENERGY>
59.7963

> <PUBCHEM_FEATURE_SELFOVERLAP>
25.551

> <PUBCHEM_SHAPE_FINGERPRINT>
10062212 137 18115291281569691498
10608611 8 18340761649919201260
10863032 1 18060420209387554438
10922523 26 18343018934247595350
11132069 177 18410848863375179144
11206711 2 18335693983667855983
11578080 2 13398047739996964259
12138202 97 18408881832625062102
12423570 1 14880587935706027915
12491281 212 18412551985211113001
12808571 1 15936698085779797268
12932764 1 18187362112422109512
13024252 1 16443352000408824011
13299463 15 18272654549509404310
13581323 91 17385447639194128088
144361 1 18193272116286281281
15219456 202 18201439228891758434
15775835 57 18040990705169482901
16945 1 18335977593000569873
17844478 74 17967546670182489489
18186145 218 18341894043726684404
18522851 268 17988072408736253455
19765921 60 17749389200460101776
19868273 293 18186799158247561078
200 152 16630526202938366374
20201158 50 18343581867184788214
20361792 2 14836401453830180490
20645476 183 17168439181156979738
20653085 51 18410582802787914363
20871999 31 18411136935358119589
21501502 16 18266465493040632948
22721475 48 18267869573699977527
22802520 49 18202287961357921678
22926399 65 18260828172608272940
2334 1 18267301126146284240
23402539 116 18340759343922287430
23493267 7 17386858196490432561
23557571 272 18054775454245998827
23559900 14 18342458102794595902
25 1 18192711146613554661
2748010 2 18340199816514650732
296302 2 17418093226334463888
3060560 45 18122320433836447157
353137 74 18267585693483708256
528886 8 18271804584076481971
63268167 104 18336823091778112001
6333449 129 18412824702659901022
69090 78 18413105069856802759
7364860 26 17984701387795696752
7832392 63 18271527507283763753
81228 2 18118124907749699427
8809292 202 18411423907935381046

> <PUBCHEM_SHAPE_MULTIPOLES>
323.4
4.97
2.07
1.29
1.68
0.02
-0.3
-0.42
1.34
-0.78
0.14
-0.26
0.06
0.4

> <PUBCHEM_SHAPE_SELFOVERLAP>
673.977

> <PUBCHEM_SHAPE_VOLUME>
184.1

> <PUBCHEM_COORDINATE_TYPE>
2
5
10

$$$$
