19782729
  -OEChem-11232109063D

 13 13  0     0  0  0  0  0  0999 V2000
    0.7982   -1.1095    0.0000 O   0  0  0  0  0  0  0  0  0  0  0  0
   -1.9717   -1.2142    0.0002 O   0  0  0  0  0  0  0  0  0  0  0  0
    0.7080    1.1502    0.0021 N   0  0  0  0  0  0  0  0  0  0  0  0
    0.0384    0.0198    0.0024 C   0  0  0  0  0  0  0  0  0  0  0  0
   -1.3776   -0.0974    0.0004 C   0  0  0  0  0  0  0  0  0  0  0  0
   -2.2857    1.1489   -0.0023 C   0  0  0  0  0  0  0  0  0  0  0  0
    2.0749   -0.6346   -0.0019 C   0  0  0  0  0  0  0  0  0  0  0  0
    2.0155    0.7368   -0.0009 C   0  0  0  0  0  0  0  0  0  0  0  0
   -2.0865    1.7397   -0.9000 H   0  0  0  0  0  0  0  0  0  0  0  0
   -2.0873    1.7431    0.8935 H   0  0  0  0  0  0  0  0  0  0  0  0
   -3.3352    0.8420   -0.0021 H   0  0  0  0  0  0  0  0  0  0  0  0
    2.8647   -1.3704   -0.0040 H   0  0  0  0  0  0  0  0  0  0  0  0
    2.8342    1.4407   -0.0019 H   0  0  0  0  0  0  0  0  0  0  0  0
  1  4  1  0  0  0  0
  1  7  1  0  0  0  0
  2  5  2  0  0  0  0
  3  4  2  0  0  0  0
  3  8  1  0  0  0  0
  4  5  1  0  0  0  0
  5  6  1  0  0  0  0
  6  9  1  0  0  0  0
  6 10  1  0  0  0  0
  6 11  1  0  0  0  0
  7  8  2  0  0  0  0
  7 12  1  0  0  0  0
  8 13  1  0  0  0  0
M  END
> <PUBCHEM_COMPOUND_CID>
19782729

> <PUBCHEM_CONFORMER_RMSD>
0.4

> <PUBCHEM_CONFORMER_DIVERSEORDER>
1
3
5
4
6
2

> <PUBCHEM_MMFF94_PARTIAL_CHARGES>
10
1 -0.28
12 0.15
13 0.15
2 -0.57
3 -0.57
4 0.39
5 0.59
6 0.06
7 -0.01
8 0.08

> <PUBCHEM_EFFECTIVE_ROTOR_COUNT>
1

> <PUBCHEM_PHARMACOPHORE_FEATURES>
2
1 2 acceptor
5 1 3 4 7 8 rings

> <PUBCHEM_HEAVY_ATOM_COUNT>
8

> <PUBCHEM_ATOM_DEF_STEREO_COUNT>
0

> <PUBCHEM_ATOM_UDEF_STEREO_COUNT>
0

> <PUBCHEM_BOND_DEF_STEREO_COUNT>
0

> <PUBCHEM_BOND_UDEF_STEREO_COUNT>
0

> <PUBCHEM_ISOTOPIC_ATOM_COUNT>
0

> <PUBCHEM_COMPONENT_COUNT>
1

> <PUBCHEM_CACTVS_TAUTO_COUNT>
2

> <PUBCHEM_CONFORMER_ID>
012DDC4900000001

> <PUBCHEM_MMFF94_ENERGY>
7.1571

> <PUBCHEM_FEATURE_SELFOVERLAP>
10.148

> <PUBCHEM_SHAPE_FINGERPRINT>
14390081 3 18343578555559449969
20096714 4 18411138043217062280
21040471 1 18338797926525737600
23552423 10 18260833691514660486
24536 1 18337938065319652501
29004967 10 18410295808936470818
5084963 1 18200317748184484168

> <PUBCHEM_SHAPE_MULTIPOLES>
147.92
3.24
1.3
0.58
0.51
0.02
0
-0.25
0
0.22
0
-0.01
-0.02
0

> <PUBCHEM_SHAPE_SELFOVERLAP>
303.846

> <PUBCHEM_SHAPE_VOLUME>
86.7

> <PUBCHEM_COORDINATE_TYPE>
2
5
10

$$$$
