198512
  -OEChem-11232109463D

 48 48  0     0  0  0  0  0  0999 V2000
   -0.9145    1.0169   -0.3462 O   0  0  0  0  0  0  0  0  0  0  0  0
    1.3378    0.2837   -0.3465 O   0  0  0  0  0  0  0  0  0  0  0  0
   -0.4234   -1.3004   -0.3458 O   0  0  0  0  0  0  0  0  0  0  0  0
    0.4182    1.2844    0.0996 C   0  0  0  0  0  0  0  0  0  0  0  0
   -1.3215   -0.2799    0.0997 C   0  0  0  0  0  0  0  0  0  0  0  0
    0.9033   -1.0043    0.0996 C   0  0  0  0  0  0  0  0  0  0  0  0
    0.8522    2.6180   -0.4820 C   0  0  0  0  0  0  0  0  0  0  0  0
   -2.6932   -0.5708   -0.4822 C   0  0  0  0  0  0  0  0  0  0  0  0
    1.8407   -2.0470   -0.4829 C   0  0  0  0  0  0  0  0  0  0  0  0
    2.2743    3.0408   -0.0684 C   0  0  0  0  0  0  0  0  0  0  0  0
   -3.7706    0.4490   -0.0685 C   0  0  0  0  0  0  0  0  0  0  0  0
    1.4962   -3.4898   -0.0688 C   0  0  0  0  0  0  0  0  0  0  0  0
    2.4397    3.1158    1.4502 C   0  0  0  0  0  0  0  0  0  0  0  0
    3.3000    2.0667   -0.6528 C   0  0  0  0  0  0  0  0  0  0  0  0
   -3.9185    0.5543    1.4500 C   0  0  0  0  0  0  0  0  0  0  0  0
   -3.4402    1.8245   -0.6526 C   0  0  0  0  0  0  0  0  0  0  0  0
    1.4800   -3.6706    1.4497 C   0  0  0  0  0  0  0  0  0  0  0  0
    0.1393   -3.8912   -0.6519 C   0  0  0  0  0  0  0  0  0  0  0  0
    0.4154    1.3268    1.1956 H   0  0  0  0  0  0  0  0  0  0  0  0
   -1.3570   -0.3036    1.1957 H   0  0  0  0  0  0  0  0  0  0  0  0
    0.9421   -1.0231    1.1956 H   0  0  0  0  0  0  0  0  0  0  0  0
    0.7924    2.5785   -1.5780 H   0  0  0  0  0  0  0  0  0  0  0  0
    0.1375    3.3928   -0.1756 H   0  0  0  0  0  0  0  0  0  0  0  0
   -2.6289   -0.6026   -1.5781 H   0  0  0  0  0  0  0  0  0  0  0  0
   -3.0067   -1.5773   -0.1762 H   0  0  0  0  0  0  0  0  0  0  0  0
    1.8354   -1.9756   -1.5789 H   0  0  0  0  0  0  0  0  0  0  0  0
    2.8693   -1.8154   -0.1774 H   0  0  0  0  0  0  0  0  0  0  0  0
    2.4592    4.0356   -0.4923 H   0  0  0  0  0  0  0  0  0  0  0  0
   -4.7245    0.1116   -0.4927 H   0  0  0  0  0  0  0  0  0  0  0  0
    2.2649   -4.1474   -0.4934 H   0  0  0  0  0  0  0  0  0  0  0  0
    2.3899    2.1315    1.9263 H   0  0  0  0  0  0  0  0  0  0  0  0
    1.6675    3.7528    1.8939 H   0  0  0  0  0  0  0  0  0  0  0  0
    3.4138    3.5494    1.7025 H   0  0  0  0  0  0  0  0  0  0  0  0
    3.4443    1.1690   -0.0446 H   0  0  0  0  0  0  0  0  0  0  0  0
    4.2801    2.5592   -0.6817 H   0  0  0  0  0  0  0  0  0  0  0  0
    3.0614    1.7833   -1.6832 H   0  0  0  0  0  0  0  0  0  0  0  0
   -3.0413    1.0034    1.9263 H   0  0  0  0  0  0  0  0  0  0  0  0
   -4.0839   -0.4330    1.8935 H   0  0  0  0  0  0  0  0  0  0  0  0
   -4.7812    1.1808    1.7023 H   0  0  0  0  0  0  0  0  0  0  0  0
   -2.7349    2.3982   -0.0443 H   0  0  0  0  0  0  0  0  0  0  0  0
   -4.3567    2.4270   -0.6812 H   0  0  0  0  0  0  0  0  0  0  0  0
   -3.0755    1.7598   -1.6830 H   0  0  0  0  0  0  0  0  0  0  0  0
    0.6529   -3.1354    1.9267 H   0  0  0  0  0  0  0  0  0  0  0  0
    2.4181   -3.3204    1.8926 H   0  0  0  0  0  0  0  0  0  0  0  0
    1.3686   -4.7310    1.7021 H   0  0  0  0  0  0  0  0  0  0  0  0
   -0.7097   -3.5673   -0.0430 H   0  0  0  0  0  0  0  0  0  0  0  0
    0.0757   -4.9861   -0.6806 H   0  0  0  0  0  0  0  0  0  0  0  0
    0.0123   -3.5429   -1.6822 H   0  0  0  0  0  0  0  0  0  0  0  0
  1  4  1  0  0  0  0
  1  5  1  0  0  0  0
  2  4  1  0  0  0  0
  2  6  1  0  0  0  0
  3  5  1  0  0  0  0
  3  6  1  0  0  0  0
  4  7  1  0  0  0  0
  4 19  1  0  0  0  0
  5  8  1  0  0  0  0
  5 20  1  0  0  0  0
  6  9  1  0  0  0  0
  6 21  1  0  0  0  0
  7 10  1  0  0  0  0
  7 22  1  0  0  0  0
  7 23  1  0  0  0  0
  8 11  1  0  0  0  0
  8 24  1  0  0  0  0
  8 25  1  0  0  0  0
  9 12  1  0  0  0  0
  9 26  1  0  0  0  0
  9 27  1  0  0  0  0
 10 13  1  0  0  0  0
 10 14  1  0  0  0  0
 10 28  1  0  0  0  0
 11 15  1  0  0  0  0
 11 16  1  0  0  0  0
 11 29  1  0  0  0  0
 12 17  1  0  0  0  0
 12 18  1  0  0  0  0
 12 30  1  0  0  0  0
 13 31  1  0  0  0  0
 13 32  1  0  0  0  0
 13 33  1  0  0  0  0
 14 34  1  0  0  0  0
 14 35  1  0  0  0  0
 14 36  1  0  0  0  0
 15 37  1  0  0  0  0
 15 38  1  0  0  0  0
 15 39  1  0  0  0  0
 16 40  1  0  0  0  0
 16 41  1  0  0  0  0
 16 42  1  0  0  0  0
 17 43  1  0  0  0  0
 17 44  1  0  0  0  0
 17 45  1  0  0  0  0
 18 46  1  0  0  0  0
 18 47  1  0  0  0  0
 18 48  1  0  0  0  0
M  END
> <PUBCHEM_COMPOUND_CID>
198512

> <PUBCHEM_CONFORMER_RMSD>
0.8

> <PUBCHEM_CONFORMER_DIVERSEORDER>
1
7
2
3
9
8
5
10
6
4
11

> <PUBCHEM_MMFF94_PARTIAL_CHARGES>
6
1 -0.56
2 -0.56
3 -0.56
4 0.56
5 0.56
6 0.56

> <PUBCHEM_EFFECTIVE_ROTOR_COUNT>
7.2

> <PUBCHEM_PHARMACOPHORE_FEATURES>
7
1 1 acceptor
1 2 acceptor
1 3 acceptor
3 10 13 14 hydrophobe
3 11 15 16 hydrophobe
3 12 17 18 hydrophobe
6 1 2 3 4 5 6 rings

> <PUBCHEM_HEAVY_ATOM_COUNT>
18

> <PUBCHEM_ATOM_DEF_STEREO_COUNT>
0

> <PUBCHEM_ATOM_UDEF_STEREO_COUNT>
0

> <PUBCHEM_BOND_DEF_STEREO_COUNT>
0

> <PUBCHEM_BOND_UDEF_STEREO_COUNT>
0

> <PUBCHEM_ISOTOPIC_ATOM_COUNT>
0

> <PUBCHEM_COMPONENT_COUNT>
1

> <PUBCHEM_CACTVS_TAUTO_COUNT>
1

> <PUBCHEM_CONFORMER_ID>
0003077000000001

> <PUBCHEM_MMFF94_ENERGY>
39.566

> <PUBCHEM_FEATURE_SELFOVERLAP>
35.632

> <PUBCHEM_SHAPE_FINGERPRINT>
1100329 8 18410571812631722602
11357001 24 17256238775216944954
116883 192 17187564945267084727
11833330 49 17326889578244161658
121448 382 17839441625500592501
12500047 106 17981043338754708812
12553582 1 17979642229959155399
12788726 201 17038656436481664704
13140716 1 18338799025731404121
136203 1 17402048297509758104
14178000 22 18051959604893521688
14790565 3 18410303497377122572
15042514 8 17399795389731868314
15309172 13 18265054824170631001
15502708 68 18410290354159550476
16945 1 18410855417521399853
18186145 218 18128827514968937940
19021347 4 18050568744068972560
19591789 44 18338241586374075702
20510252 161 17478612768335629033
20645477 70 18335413540015851367
20671657 1 18342740706482373221
21524375 3 18198907104947025685
21731228 192 18193559097458752625
2255824 54 18412829053715200423
23402539 116 16825848679249905045
23419403 2 17464867541796266642
23557571 272 17402320474347074530
23558518 356 17905039614695580462
23598291 2 18059855039416024567
2748010 2 18192162700474437687
305870 269 18338513148645693645
3071541 236 17689419903672548296
3091708 16 9186779735831609450
3187 122 17541349381867525714
352729 6 17473825507471524188
4175511 71 17980208482931779059
43471831 8 18337385071306132141
458136 41 18337409217465018921
54173680 148 17328864812281594020
58807428 26 18339075020393531992
7364860 26 18411419470986075621
79837 15 18194682806868678704
81228 2 17185594615923736704
84936 182 18201440293838478681
90316 7 17474106501644175155
9709674 26 17550956223013192804

> <PUBCHEM_SHAPE_MULTIPOLES>
352.82
5.5
5.5
1.1
5.58
4.21
0.45
-4.21
0.61
-5.58
0.61
0
0
0

> <PUBCHEM_SHAPE_SELFOVERLAP>
682.291

> <PUBCHEM_SHAPE_VOLUME>
213.2

> <PUBCHEM_COORDINATE_TYPE>
2
5
10

$$$$
