19876973
  -OEChem-11232108563D

 21 21  0     1  0  0  0  0  0999 V2000
   -1.6341    1.5413   -0.1811 O   0  0  0  0  0  0  0  0  0  0  0  0
   -2.7836   -1.7930    0.1222 O   0  0  0  0  0  0  0  0  0  0  0  0
   -0.6602    0.7471    0.5081 C   0  0  1  0  0  0  0  0  0  0  0  0
   -1.6025    0.1423   -0.4917 C   0  0  1  0  0  0  0  0  0  0  0  0
    0.7531    1.0558    0.1209 C   0  0  0  0  0  0  0  0  0  0  0  0
    1.6564   -0.1712    0.2458 C   0  0  0  0  0  0  0  0  0  0  0  0
    3.0868    0.1426   -0.1898 C   0  0  0  0  0  0  0  0  0  0  0  0
   -2.7940   -0.5789   -0.0316 C   0  0  0  0  0  0  0  0  0  0  0  0
    3.9781   -1.0860   -0.1028 C   0  0  0  0  0  0  0  0  0  0  0  0
   -0.8011    0.5615    1.5637 H   0  0  0  0  0  0  0  0  0  0  0  0
   -1.2118   -0.1443   -1.4606 H   0  0  0  0  0  0  0  0  0  0  0  0
    1.1268    1.8578    0.7684 H   0  0  0  0  0  0  0  0  0  0  0  0
    0.7928    1.4355   -0.9080 H   0  0  0  0  0  0  0  0  0  0  0  0
    1.2547   -0.9867   -0.3686 H   0  0  0  0  0  0  0  0  0  0  0  0
    1.6516   -0.5280    1.2832 H   0  0  0  0  0  0  0  0  0  0  0  0
    3.0898    0.5140   -1.2211 H   0  0  0  0  0  0  0  0  0  0  0  0
    3.5026    0.9360    0.4421 H   0  0  0  0  0  0  0  0  0  0  0  0
   -3.6987    0.0218    0.1592 H   0  0  0  0  0  0  0  0  0  0  0  0
    3.6076   -1.8864   -0.7512 H   0  0  0  0  0  0  0  0  0  0  0  0
    4.0222   -1.4667    0.9226 H   0  0  0  0  0  0  0  0  0  0  0  0
    4.9968   -0.8384   -0.4174 H   0  0  0  0  0  0  0  0  0  0  0  0
  1  3  1  0  0  0  0
  1  4  1  0  0  0  0
  2  8  2  0  0  0  0
  3  4  1  0  0  0  0
  3  5  1  0  0  0  0
  3 10  1  0  0  0  0
  4  8  1  0  0  0  0
  4 11  1  0  0  0  0
  5  6  1  0  0  0  0
  5 12  1  0  0  0  0
  5 13  1  0  0  0  0
  6  7  1  0  0  0  0
  6 14  1  0  0  0  0
  6 15  1  0  0  0  0
  7  9  1  0  0  0  0
  7 16  1  0  0  0  0
  7 17  1  0  0  0  0
  8 18  1  0  0  0  0
  9 19  1  0  0  0  0
  9 20  1  0  0  0  0
  9 21  1  0  0  0  0
M  END
> <PUBCHEM_COMPOUND_CID>
19876973

> <PUBCHEM_CONFORMER_RMSD>
0.6

> <PUBCHEM_CONFORMER_DIVERSEORDER>
1
81
33
70
75
3
40
77
18
80
65
38
73
13
87
86
64
84
25
2
22
66
27
83
67
63
71
58
48
41
85
79
59
29
44
61
69
5
24
9
17
6
20
45
36
42
57
10
12
68
62
60
26
82
21
78
34
32
7
74
39
31
14
56
51
16
8
55
15
43
52
46
35
4
30
76
47
50
37
19
28
72
53
54
23
49
11

> <PUBCHEM_MMFF94_PARTIAL_CHARGES>
9
1 -0.3
10 0.1
11 0.1
18 0.06
2 -0.57
3 -0.05
4 0.05
5 0.09
8 0.51

> <PUBCHEM_EFFECTIVE_ROTOR_COUNT>
4.6

> <PUBCHEM_PHARMACOPHORE_FEATURES>
3
1 1 acceptor
1 2 acceptor
1 9 hydrophobe

> <PUBCHEM_HEAVY_ATOM_COUNT>
9

> <PUBCHEM_ATOM_DEF_STEREO_COUNT>
0

> <PUBCHEM_ATOM_UDEF_STEREO_COUNT>
2

> <PUBCHEM_BOND_DEF_STEREO_COUNT>
0

> <PUBCHEM_BOND_UDEF_STEREO_COUNT>
0

> <PUBCHEM_ISOTOPIC_ATOM_COUNT>
0

> <PUBCHEM_COMPONENT_COUNT>
1

> <PUBCHEM_CACTVS_TAUTO_COUNT>
2

> <PUBCHEM_CONFORMER_ID>
012F4C6D00000001

> <PUBCHEM_MMFF94_ENERGY>
3.306

> <PUBCHEM_FEATURE_SELFOVERLAP>
15.223

> <PUBCHEM_SHAPE_FINGERPRINT>
12897270 3 18186514419037702452
12932764 1 17604143727690528552
14128692 85 18335423516454973820
14251710 61 18343310236605806198
14325111 11 18410855434949253668
14390081 3 8430322341665831633
177051 138 18341612603531828710
18342897 69 18411134719102324938
20201158 50 18413670209943189487
20281407 28 18342458178974982923
21061003 4 17132113541678577984
21293036 1 14273456998093484361
22485316 2 18343016722318384158
23552423 10 18187080702070491693
528716 315 18260271836730407374

> <PUBCHEM_SHAPE_MULTIPOLES>
173.48
6.14
1.45
0.67
4.07
0.21
0
3.08
0.38
-0.76
-0.04
-0.01
-0.03
0.12

> <PUBCHEM_SHAPE_SELFOVERLAP>
324.797

> <PUBCHEM_SHAPE_VOLUME>
109.5

> <PUBCHEM_COORDINATE_TYPE>
2
5
10

$$$$
