20046
  -OEChem-11232109413D

 29 29  0     1  0  0  0  0  0999 V2000
    2.1175   -0.2720    1.2723 O   0  0  0  0  0  0  0  0  0  0  0  0
    0.3407   -0.6420   -0.3874 C   0  0  2  0  0  0  0  0  0  0  0  0
    1.6595    0.0707   -0.0343 C   0  0  1  0  0  0  0  0  0  0  0  0
   -0.7015    0.1340    0.4458 C   0  0  1  0  0  0  0  0  0  0  0  0
    1.2496    1.5440   -0.0752 C   0  0  0  0  0  0  0  0  0  0  0  0
   -0.1769    1.5805    0.4836 C   0  0  0  0  0  0  0  0  0  0  0  0
    0.3339   -2.1390   -0.0879 C   0  0  0  0  0  0  0  0  0  0  0  0
    2.7918   -0.2357   -1.0066 C   0  0  0  0  0  0  0  0  0  0  0  0
   -2.0918    0.0416   -0.0975 C   0  0  0  0  0  0  0  0  0  0  0  0
   -3.1273   -0.5253    0.8278 C   0  0  0  0  0  0  0  0  0  0  0  0
   -2.3954    0.4434   -1.3406 C   0  0  0  0  0  0  0  0  0  0  0  0
    0.1529   -0.5136   -1.4619 H   0  0  0  0  0  0  0  0  0  0  0  0
   -0.6876   -0.2487    1.4763 H   0  0  0  0  0  0  0  0  0  0  0  0
    1.2351    1.9163   -1.1069 H   0  0  0  0  0  0  0  0  0  0  0  0
    1.9134    2.1873    0.5118 H   0  0  0  0  0  0  0  0  0  0  0  0
   -0.1590    1.9310    1.5232 H   0  0  0  0  0  0  0  0  0  0  0  0
   -0.7856    2.3003   -0.0745 H   0  0  0  0  0  0  0  0  0  0  0  0
   -0.6290   -2.5832   -0.3609 H   0  0  0  0  0  0  0  0  0  0  0  0
    1.1106   -2.6557   -0.6602 H   0  0  0  0  0  0  0  0  0  0  0  0
    0.5047   -2.3423    0.9743 H   0  0  0  0  0  0  0  0  0  0  0  0
    3.0995   -1.2844   -0.9351 H   0  0  0  0  0  0  0  0  0  0  0  0
    2.5058   -0.0288   -2.0429 H   0  0  0  0  0  0  0  0  0  0  0  0
    3.6786    0.3639   -0.7710 H   0  0  0  0  0  0  0  0  0  0  0  0
    2.8936    0.2783    1.4730 H   0  0  0  0  0  0  0  0  0  0  0  0
   -2.8587   -1.5458    1.1202 H   0  0  0  0  0  0  0  0  0  0  0  0
   -3.2060    0.0877    1.7316 H   0  0  0  0  0  0  0  0  0  0  0  0
   -4.1185   -0.5625    0.3637 H   0  0  0  0  0  0  0  0  0  0  0  0
   -3.4090    0.3697   -1.7213 H   0  0  0  0  0  0  0  0  0  0  0  0
   -1.6507    0.8613   -2.0094 H   0  0  0  0  0  0  0  0  0  0  0  0
  1  3  1  0  0  0  0
  1 24  1  0  0  0  0
  2  3  1  0  0  0  0
  2  4  1  0  0  0  0
  2  7  1  0  0  0  0
  2 12  1  0  0  0  0
  3  5  1  0  0  0  0
  3  8  1  0  0  0  0
  4  6  1  0  0  0  0
  4  9  1  0  0  0  0
  4 13  1  0  0  0  0
  5  6  1  0  0  0  0
  5 14  1  0  0  0  0
  5 15  1  0  0  0  0
  6 16  1  0  0  0  0
  6 17  1  0  0  0  0
  7 18  1  0  0  0  0
  7 19  1  0  0  0  0
  7 20  1  0  0  0  0
  8 21  1  0  0  0  0
  8 22  1  0  0  0  0
  8 23  1  0  0  0  0
  9 10  1  0  0  0  0
  9 11  2  0  0  0  0
 10 25  1  0  0  0  0
 10 26  1  0  0  0  0
 10 27  1  0  0  0  0
 11 28  1  0  0  0  0
 11 29  1  0  0  0  0
M  END
> <PUBCHEM_COMPOUND_CID>
20046

> <PUBCHEM_CONFORMER_RMSD>
0.4

> <PUBCHEM_CONFORMER_DIVERSEORDER>
1
18
14
13
17
12
5
16
19
15
8
11
10
9
4
3
7
2
6

> <PUBCHEM_MMFF94_PARTIAL_CHARGES>
9
1 -0.68
10 0.14
11 -0.3
24 0.4
28 0.15
29 0.15
3 0.28
4 0.14
9 -0.28

> <PUBCHEM_EFFECTIVE_ROTOR_COUNT>
2

> <PUBCHEM_PHARMACOPHORE_FEATURES>
3
1 1 acceptor
1 1 donor
5 2 3 4 5 6 rings

> <PUBCHEM_HEAVY_ATOM_COUNT>
11

> <PUBCHEM_ATOM_DEF_STEREO_COUNT>
0

> <PUBCHEM_ATOM_UDEF_STEREO_COUNT>
3

> <PUBCHEM_BOND_DEF_STEREO_COUNT>
0

> <PUBCHEM_BOND_UDEF_STEREO_COUNT>
0

> <PUBCHEM_ISOTOPIC_ATOM_COUNT>
0

> <PUBCHEM_COMPONENT_COUNT>
1

> <PUBCHEM_CACTVS_TAUTO_COUNT>
1

> <PUBCHEM_CONFORMER_ID>
00004E4E00000001

> <PUBCHEM_MMFF94_ENERGY>
29.9802

> <PUBCHEM_FEATURE_SELFOVERLAP>
15.223

> <PUBCHEM_SHAPE_FINGERPRINT>
10353120 184 18199767897839306156
12423570 1 13507300309590540154
12897270 3 18408323263543505429
12932764 1 17968094256916372171
15310529 11 17240201053468667741
16945 1 18413383224517715007
17844478 74 18041853899444360361
20201158 50 18334856091641443747
21040471 1 18196931291099616120
21293036 1 18336559290829084420
23235685 24 18343028808329857906
23419403 2 16099303627829829216
23552423 10 18047762489837127646
241688 4 17908153074768486930
2748010 2 18196091272689774870
29004967 10 18411981338797583913
5084963 1 17989495108089323152
528886 8 18342748402847483347

> <PUBCHEM_SHAPE_MULTIPOLES>
220.51
3.96
1.59
1.1
1.22
0.25
-0.11
0.28
-0.28
-0.34
0.08
0.14
-0.02
0.24

> <PUBCHEM_SHAPE_SELFOVERLAP>
437.33

> <PUBCHEM_SHAPE_VOLUME>
134.8

> <PUBCHEM_COORDINATE_TYPE>
2
5
10

$$$$
