20372968
  -OEChem-11232109483D

 35 34  0     1  0  0  0  0  0999 V2000
   -1.8512    3.1748    0.3843 S   0  0  0  0  0  0  0  0  0  0  0  0
   -0.2544    1.2289   -1.4742 O   0  0  0  0  0  0  0  0  0  0  0  0
   -1.5308    1.3878    0.5654 C   0  0  1  0  0  0  0  0  0  0  0  0
   -2.7503    0.5812    0.1015 C   0  0  0  0  0  0  0  0  0  0  0  0
    2.1206    0.2133   -0.3473 C   0  0  0  0  0  0  0  0  0  0  0  0
    0.9227    0.5731    0.5300 C   0  0  0  0  0  0  0  0  0  0  0  0
   -2.5272   -0.9294    0.2590 C   0  0  0  0  0  0  0  0  0  0  0  0
    3.2854   -0.3615    0.4649 C   0  0  0  0  0  0  0  0  0  0  0  0
   -0.2814    1.0804   -0.2523 C   0  0  0  0  0  0  0  0  0  0  0  0
   -3.7487   -1.7661   -0.1296 C   0  0  0  0  0  0  0  0  0  0  0  0
    4.4796   -0.6858   -0.4329 C   0  0  0  0  0  0  0  0  0  0  0  0
   -3.5138   -3.2661   -0.0400 C   0  0  0  0  0  0  0  0  0  0  0  0
    5.6496   -1.2303    0.3712 C   0  0  0  0  0  0  0  0  0  0  0  0
   -1.3320    1.1905    1.6239 H   0  0  0  0  0  0  0  0  0  0  0  0
   -2.9748    0.7914   -0.9525 H   0  0  0  0  0  0  0  0  0  0  0  0
   -3.6323    0.8714    0.6865 H   0  0  0  0  0  0  0  0  0  0  0  0
    1.8117   -0.5157   -1.1069 H   0  0  0  0  0  0  0  0  0  0  0  0
    2.4538    1.1071   -0.8897 H   0  0  0  0  0  0  0  0  0  0  0  0
    0.6026   -0.3126    1.0906 H   0  0  0  0  0  0  0  0  0  0  0  0
    1.2091    1.3513    1.2461 H   0  0  0  0  0  0  0  0  0  0  0  0
   -2.2602   -1.1506    1.2998 H   0  0  0  0  0  0  0  0  0  0  0  0
   -1.6781   -1.2433   -0.3600 H   0  0  0  0  0  0  0  0  0  0  0  0
    3.5871    0.3618    1.2321 H   0  0  0  0  0  0  0  0  0  0  0  0
    2.9575   -1.2689    0.9863 H   0  0  0  0  0  0  0  0  0  0  0  0
   -4.5920   -1.4988    0.5181 H   0  0  0  0  0  0  0  0  0  0  0  0
   -4.0457   -1.5184   -1.1558 H   0  0  0  0  0  0  0  0  0  0  0  0
    4.8006    0.2164   -0.9665 H   0  0  0  0  0  0  0  0  0  0  0  0
    4.1872   -1.4235   -1.1891 H   0  0  0  0  0  0  0  0  0  0  0  0
   -3.2477   -3.5584    0.9807 H   0  0  0  0  0  0  0  0  0  0  0  0
   -2.7035   -3.5747   -0.7079 H   0  0  0  0  0  0  0  0  0  0  0  0
   -4.4187   -3.8109   -0.3266 H   0  0  0  0  0  0  0  0  0  0  0  0
    5.9877   -0.5015    1.1146 H   0  0  0  0  0  0  0  0  0  0  0  0
    5.3714   -2.1511    0.8939 H   0  0  0  0  0  0  0  0  0  0  0  0
    6.4916   -1.4564   -0.2905 H   0  0  0  0  0  0  0  0  0  0  0  0
   -2.0545    3.1663   -0.9417 H   0  0  0  0  0  0  0  0  0  0  0  0
  1  3  1  0  0  0  0
  1 35  1  0  0  0  0
  2  9  2  0  0  0  0
  3  4  1  0  0  0  0
  3  9  1  0  0  0  0
  3 14  1  0  0  0  0
  4  7  1  0  0  0  0
  4 15  1  0  0  0  0
  4 16  1  0  0  0  0
  5  6  1  0  0  0  0
  5  8  1  0  0  0  0
  5 17  1  0  0  0  0
  5 18  1  0  0  0  0
  6  9  1  0  0  0  0
  6 19  1  0  0  0  0
  6 20  1  0  0  0  0
  7 10  1  0  0  0  0
  7 21  1  0  0  0  0
  7 22  1  0  0  0  0
  8 11  1  0  0  0  0
  8 23  1  0  0  0  0
  8 24  1  0  0  0  0
 10 12  1  0  0  0  0
 10 25  1  0  0  0  0
 10 26  1  0  0  0  0
 11 13  1  0  0  0  0
 11 27  1  0  0  0  0
 11 28  1  0  0  0  0
 12 29  1  0  0  0  0
 12 30  1  0  0  0  0
 12 31  1  0  0  0  0
 13 32  1  0  0  0  0
 13 33  1  0  0  0  0
 13 34  1  0  0  0  0
M  END
> <PUBCHEM_COMPOUND_CID>
20372968

> <PUBCHEM_CONFORMER_RMSD>
1

> <PUBCHEM_CONFORMER_DIVERSEORDER>
1
266
362
131
123
278
71
107
15
365
44
13
466
432
570
51
24
313
244
455
492
115
519
153
25
311
420
40
269
167
37
34
351
534
74
358
2
367
227
516
370
529
558
57
5
435
90
460
36
527
292
169
170
14
66
89
95
98
75
387
3
48
228
203
531
23
80
28
468
101
147
166
371
376
470
156
7
494
524
428
76
149
306
218
297
512
345
56
19
70
331
277
4
539
160
237
268
41
337
233
83
211
9
21

> <PUBCHEM_MMFF94_PARTIAL_CHARGES>
6
1 -0.41
2 -0.57
3 0.29
35 0.18
6 0.06
9 0.45

> <PUBCHEM_EFFECTIVE_ROTOR_COUNT>
8

> <PUBCHEM_PHARMACOPHORE_FEATURES>
4
1 12 hydrophobe
1 13 hydrophobe
1 2 acceptor
4 5 6 8 11 hydrophobe

> <PUBCHEM_HEAVY_ATOM_COUNT>
13

> <PUBCHEM_ATOM_DEF_STEREO_COUNT>
0

> <PUBCHEM_ATOM_UDEF_STEREO_COUNT>
1

> <PUBCHEM_BOND_DEF_STEREO_COUNT>
0

> <PUBCHEM_BOND_UDEF_STEREO_COUNT>
0

> <PUBCHEM_ISOTOPIC_ATOM_COUNT>
0

> <PUBCHEM_COMPONENT_COUNT>
1

> <PUBCHEM_CACTVS_TAUTO_COUNT>
5

> <PUBCHEM_CONFORMER_ID>
0136DDE800000001

> <PUBCHEM_MMFF94_ENERGY>
4.3264

> <PUBCHEM_FEATURE_SELFOVERLAP>
20.298

> <PUBCHEM_SHAPE_FINGERPRINT>
11046707 91 18409448098245788818
12500047 106 18195243313144476880
12523318 42 18269821074091154202
12757275 245 18410857642019176939
13955234 65 17261318515196308011
14251710 61 18338799038796121515
14251732 16 18339639040874783232
200 152 16877943811273452516
20621476 21 17917167030624717206
20645477 70 17617646001632685487
20671657 53 18042126616798125645
20681677 274 18342452686023379304
20724930 33 18409450306011790909
20871998 22 18124592239702781289
21426921 1 18339081493035879752
21650355 55 18342742909969823473
22926399 65 8214146248333028166
23402539 116 16877947084191525884
23557571 272 18059017164264188756
23559900 14 18340194271722876144
3086196 2 18413671305207121321
57265010 4 17846223206814241593
573450 72 18190173504215738064
58143232 49 18336265733766569478
59345606 119 18412263947709223922
7062679 117 18408327688003521710
77188 2 18268709601079964329
88748 71 17903639923567470947

> <PUBCHEM_SHAPE_MULTIPOLES>
265.51
9.53
3.22
0.86
14.15
0.27
0.15
8.05
-0.68
-5.33
-0.2
0.12
-0.2
-0.35

> <PUBCHEM_SHAPE_SELFOVERLAP>
473.709

> <PUBCHEM_SHAPE_VOLUME>
173.3

> <PUBCHEM_COORDINATE_TYPE>
2
5
10

$$$$
