20473563
  -OEChem-11232109173D

 32 31  0     1  0  0  0  0  0999 V2000
   -0.8094   -0.2281    1.5876 O   0  0  0  0  0  0  0  0  0  0  0  0
   -2.4662   -0.4364   -0.2100 C   0  0  0  0  0  0  0  0  0  0  0  0
   -1.0106   -0.0302    0.1853 C   0  0  1  0  0  0  0  0  0  0  0  0
   -0.6089    1.4141   -0.1754 C   0  0  0  0  0  0  0  0  0  0  0  0
   -2.7164   -0.3188   -1.7252 C   0  0  0  0  0  0  0  0  0  0  0  0
   -3.4640    0.4974    0.5097 C   0  0  0  0  0  0  0  0  0  0  0  0
   -2.7639   -1.8826    0.2288 C   0  0  0  0  0  0  0  0  0  0  0  0
    0.8213    1.7859    0.2470 C   0  0  0  0  0  0  0  0  0  0  0  0
    1.8700    0.9720   -0.4559 C   0  0  0  0  0  0  0  0  0  0  0  0
    2.7517    0.1878    0.1820 C   0  0  0  0  0  0  0  0  0  0  0  0
    3.7577   -0.5889   -0.5033 C   0  0  0  0  0  0  0  0  0  0  0  0
    4.6387   -1.3721    0.1292 C   0  0  0  0  0  0  0  0  0  0  0  0
   -0.3271   -0.7226   -0.3207 H   0  0  0  0  0  0  0  0  0  0  0  0
   -0.7174    1.5794   -1.2530 H   0  0  0  0  0  0  0  0  0  0  0  0
   -1.2715    2.1244    0.3313 H   0  0  0  0  0  0  0  0  0  0  0  0
   -3.7186   -0.6748   -1.9903 H   0  0  0  0  0  0  0  0  0  0  0  0
   -1.9911   -0.9180   -2.2866 H   0  0  0  0  0  0  0  0  0  0  0  0
   -2.6396    0.7163   -2.0730 H   0  0  0  0  0  0  0  0  0  0  0  0
   -3.3463    0.4684    1.5977 H   0  0  0  0  0  0  0  0  0  0  0  0
   -4.4960    0.1939    0.2947 H   0  0  0  0  0  0  0  0  0  0  0  0
   -3.3707    1.5369    0.1808 H   0  0  0  0  0  0  0  0  0  0  0  0
   -2.6809   -2.0018    1.3146 H   0  0  0  0  0  0  0  0  0  0  0  0
   -3.7782   -2.1845   -0.0563 H   0  0  0  0  0  0  0  0  0  0  0  0
   -2.0644   -2.5837   -0.2399 H   0  0  0  0  0  0  0  0  0  0  0  0
    0.9934    2.8411    0.0010 H   0  0  0  0  0  0  0  0  0  0  0  0
    0.9236    1.7057    1.3358 H   0  0  0  0  0  0  0  0  0  0  0  0
   -1.2325    0.5062    2.0632 H   0  0  0  0  0  0  0  0  0  0  0  0
    1.8969    1.0490   -1.5407 H   0  0  0  0  0  0  0  0  0  0  0  0
    2.7208    0.1187    1.2665 H   0  0  0  0  0  0  0  0  0  0  0  0
    3.7953   -0.5295   -1.5877 H   0  0  0  0  0  0  0  0  0  0  0  0
    5.3743   -1.9348   -0.4359 H   0  0  0  0  0  0  0  0  0  0  0  0
    4.6490   -1.4712    1.2096 H   0  0  0  0  0  0  0  0  0  0  0  0
  1  3  1  0  0  0  0
  1 27  1  0  0  0  0
  2  3  1  0  0  0  0
  2  5  1  0  0  0  0
  2  6  1  0  0  0  0
  2  7  1  0  0  0  0
  3  4  1  0  0  0  0
  3 13  1  0  0  0  0
  4  8  1  0  0  0  0
  4 14  1  0  0  0  0
  4 15  1  0  0  0  0
  5 16  1  0  0  0  0
  5 17  1  0  0  0  0
  5 18  1  0  0  0  0
  6 19  1  0  0  0  0
  6 20  1  0  0  0  0
  6 21  1  0  0  0  0
  7 22  1  0  0  0  0
  7 23  1  0  0  0  0
  7 24  1  0  0  0  0
  8  9  1  0  0  0  0
  8 25  1  0  0  0  0
  8 26  1  0  0  0  0
  9 10  2  0  0  0  0
  9 28  1  0  0  0  0
 10 11  1  0  0  0  0
 10 29  1  0  0  0  0
 11 12  2  0  0  0  0
 11 30  1  0  0  0  0
 12 31  1  0  0  0  0
 12 32  1  0  0  0  0
M  END
> <PUBCHEM_COMPOUND_CID>
20473563

> <PUBCHEM_CONFORMER_RMSD>
0.6

> <PUBCHEM_CONFORMER_DIVERSEORDER>
1
21
31
53
26
3
56
57
34
15
41
29
11
37
45
16
43
14
51
52
38
58
30
46
47
18
20
55
44
23
49
2
24
42
9
5
48
8
59
35
12
50
13
7
36
28
33
27
39
22
32
19
10
17
25
54
40
6
4

> <PUBCHEM_MMFF94_PARTIAL_CHARGES>
13
1 -0.68
10 -0.15
11 -0.15
12 -0.3
27 0.4
28 0.15
29 0.15
3 0.28
30 0.15
31 0.15
32 0.15
8 0.14
9 -0.29

> <PUBCHEM_EFFECTIVE_ROTOR_COUNT>
5

> <PUBCHEM_PHARMACOPHORE_FEATURES>
4
1 1 acceptor
1 1 donor
1 12 hydrophobe
4 2 5 6 7 hydrophobe

> <PUBCHEM_HEAVY_ATOM_COUNT>
12

> <PUBCHEM_ATOM_DEF_STEREO_COUNT>
0

> <PUBCHEM_ATOM_UDEF_STEREO_COUNT>
1

> <PUBCHEM_BOND_DEF_STEREO_COUNT>
1

> <PUBCHEM_BOND_UDEF_STEREO_COUNT>
0

> <PUBCHEM_ISOTOPIC_ATOM_COUNT>
0

> <PUBCHEM_COMPONENT_COUNT>
1

> <PUBCHEM_CACTVS_TAUTO_COUNT>
1

> <PUBCHEM_CONFORMER_ID>
013866DB00000001

> <PUBCHEM_MMFF94_ENERGY>
22.4987

> <PUBCHEM_FEATURE_SELFOVERLAP>
20.297

> <PUBCHEM_SHAPE_FINGERPRINT>
10149128 111 8070025575778854246
10857977 72 13757802584749348445
11031198 65 12612750212016939888
11127187 94 18113336414082358831
11132069 177 11671776087501875168
11137873 295 18334857229417400111
11769659 78 17988075711613349029
12186901 62 15936405620324550783
12815109 37 18412824668864431172
12932764 1 17168413956676965161
13296908 3 18337390547199562992
13549 16 16732977588170364830
13897977 13 10015866496068132479
14251710 61 18337397148506742426
14577589 140 17917714595508716373
17834072 14 18339911684792299080
17834072 8 18261387802625983453
18186145 218 17603861230163383348
19107657 46 18411702084467152078
19107657 9 11746930967319695950
20201158 50 18333733498722320938
20281407 28 18411705387407447552
20281475 54 18409733992954830740
20645477 56 11242554223572471540
20645477 70 18337945813345826143
20671657 53 18113340791287133804
20711983 171 14924210612908914439
22485316 2 18411982464374466376
22926399 37 11386358262384268895
23403322 49 18334857182558076506
23500284 214 8862935109094744780
23526113 38 17896602971433423216
23559900 14 18335696148985611064
27216 239 11167936965663650079
9882013 296 12031781478907968788

> <PUBCHEM_SHAPE_MULTIPOLES>
241.09
7.64
1.68
1.1
6.56
0.01
0.16
3.87
0.54
0.14
-0.1
-0.78
0.1
-0.09

> <PUBCHEM_SHAPE_SELFOVERLAP>
448.966

> <PUBCHEM_SHAPE_VOLUME>
152.2

> <PUBCHEM_COORDINATE_TYPE>
2
5
10

$$$$
