20519098
  -OEChem-11232109233D

 29 28  0     1  0  0  0  0  0999 V2000
   -1.8007    2.6716    0.2538 S   0  0  0  0  0  0  0  0  0  0  0  0
   -0.0687    0.6680   -1.4731 O   0  0  0  0  0  0  0  0  0  0  0  0
   -1.3951    0.9131    0.5232 C   0  0  1  0  0  0  0  0  0  0  0  0
   -2.5548    0.0253    0.0563 C   0  0  0  0  0  0  0  0  0  0  0  0
    1.0993    0.2317    0.5940 C   0  0  0  0  0  0  0  0  0  0  0  0
    2.3596   -0.0213   -0.2318 C   0  0  0  0  0  0  0  0  0  0  0  0
   -0.1095    0.6276   -0.2429 C   0  0  0  0  0  0  0  0  0  0  0  0
   -2.3193   -1.4776    0.2608 C   0  0  0  0  0  0  0  0  0  0  0  0
    3.5357   -0.4877    0.6302 C   0  0  0  0  0  0  0  0  0  0  0  0
   -3.5009   -2.3424   -0.1497 C   0  0  0  0  0  0  0  0  0  0  0  0
    4.7544   -0.8084   -0.2209 C   0  0  0  0  0  0  0  0  0  0  0  0
   -1.2228    0.7657    1.5943 H   0  0  0  0  0  0  0  0  0  0  0  0
   -2.7557    0.1951   -1.0101 H   0  0  0  0  0  0  0  0  0  0  0  0
   -3.4673    0.3065    0.5986 H   0  0  0  0  0  0  0  0  0  0  0  0
    0.8329   -0.6754    1.1484 H   0  0  0  0  0  0  0  0  0  0  0  0
    1.2877    1.0357    1.3143 H   0  0  0  0  0  0  0  0  0  0  0  0
    2.6354    0.8939   -0.7704 H   0  0  0  0  0  0  0  0  0  0  0  0
    2.1460   -0.7800   -0.9953 H   0  0  0  0  0  0  0  0  0  0  0  0
   -2.0948   -1.6663    1.3175 H   0  0  0  0  0  0  0  0  0  0  0  0
   -1.4411   -1.7964   -0.3123 H   0  0  0  0  0  0  0  0  0  0  0  0
    3.7937    0.2905    1.3576 H   0  0  0  0  0  0  0  0  0  0  0  0
    3.2500   -1.3814    1.1971 H   0  0  0  0  0  0  0  0  0  0  0  0
   -3.7322   -2.2077   -1.2110 H   0  0  0  0  0  0  0  0  0  0  0  0
   -3.2757   -3.3999    0.0193 H   0  0  0  0  0  0  0  0  0  0  0  0
   -4.3924   -2.0862    0.4314 H   0  0  0  0  0  0  0  0  0  0  0  0
    4.5354   -1.6091   -0.9345 H   0  0  0  0  0  0  0  0  0  0  0  0
    5.5838   -1.1364    0.4134 H   0  0  0  0  0  0  0  0  0  0  0  0
    5.0831    0.0720   -0.7822 H   0  0  0  0  0  0  0  0  0  0  0  0
   -0.7020    3.1746    0.8360 H   0  0  0  0  0  0  0  0  0  0  0  0
  1  3  1  0  0  0  0
  1 29  1  0  0  0  0
  2  7  2  0  0  0  0
  3  4  1  0  0  0  0
  3  7  1  0  0  0  0
  3 12  1  0  0  0  0
  4  8  1  0  0  0  0
  4 13  1  0  0  0  0
  4 14  1  0  0  0  0
  5  6  1  0  0  0  0
  5  7  1  0  0  0  0
  5 15  1  0  0  0  0
  5 16  1  0  0  0  0
  6  9  1  0  0  0  0
  6 17  1  0  0  0  0
  6 18  1  0  0  0  0
  8 10  1  0  0  0  0
  8 19  1  0  0  0  0
  8 20  1  0  0  0  0
  9 11  1  0  0  0  0
  9 21  1  0  0  0  0
  9 22  1  0  0  0  0
 10 23  1  0  0  0  0
 10 24  1  0  0  0  0
 10 25  1  0  0  0  0
 11 26  1  0  0  0  0
 11 27  1  0  0  0  0
 11 28  1  0  0  0  0
M  END
> <PUBCHEM_COMPOUND_CID>
20519098

> <PUBCHEM_CONFORMER_RMSD>
0.8

> <PUBCHEM_CONFORMER_DIVERSEORDER>
1
148
116
89
165
19
175
49
73
2
10
9
156
152
84
25
115
80
79
22
99
110
69
48
158
111
43
6
76
36
146
123
29
106
18
51
117
130
164
33
62
113
93
136
83
21
37
87
64
55
98
66
105
102
114
97
141
12
118
153
96
108
53
41
46
140
32
126
143
135
129
122
109
159
168
50
59
132
169
24
70
35
61
81
15
31
138
95
166
92
8
11
160
17
128
74
78
7
13
107
23
162
134
127
54
125
88
112
121
94
86
154
65
119
47
30
58
167
63
28
38
71
77
4
45
171
137
172
85
34
104
57
150
3
103
5
157
56
151
60
72
68
170
14
39
147
82
75
91
144
163
100
155
44
173
174
145
142
101
120
131
124
133
90
149
40
20
52
67
16
42
139
27
161
26

> <PUBCHEM_MMFF94_PARTIAL_CHARGES>
6
1 -0.41
2 -0.57
29 0.18
3 0.29
5 0.06
7 0.45

> <PUBCHEM_EFFECTIVE_ROTOR_COUNT>
6

> <PUBCHEM_PHARMACOPHORE_FEATURES>
3
1 10 hydrophobe
1 11 hydrophobe
1 2 acceptor

> <PUBCHEM_HEAVY_ATOM_COUNT>
11

> <PUBCHEM_ATOM_DEF_STEREO_COUNT>
0

> <PUBCHEM_ATOM_UDEF_STEREO_COUNT>
1

> <PUBCHEM_BOND_DEF_STEREO_COUNT>
0

> <PUBCHEM_BOND_UDEF_STEREO_COUNT>
0

> <PUBCHEM_ISOTOPIC_ATOM_COUNT>
0

> <PUBCHEM_COMPONENT_COUNT>
1

> <PUBCHEM_CACTVS_TAUTO_COUNT>
5

> <PUBCHEM_CONFORMER_ID>
013918BA00000001

> <PUBCHEM_MMFF94_ENERGY>
5.4529

> <PUBCHEM_FEATURE_SELFOVERLAP>
15.223

> <PUBCHEM_SHAPE_FINGERPRINT>
11769659 78 18335980964639587498
12500047 106 18195242218001448536
12932764 1 17531524266299885368
14128692 85 18041561467816076173
14965852 173 18410293575680311272
177051 138 18411981403296180114
17834074 16 18270685268798200454
18342897 69 18408880720296902810
20281475 54 18261109630742782802
20524608 308 18267867190109244313
20671657 53 17458898357345699031
20724930 33 18409448115483524399
20871998 184 18202283606487703103
20871998 22 18196368354400284137
21061003 4 16917349250939319600
22485316 2 18334009467735451114
23380061 127 18410289173539156536
23402539 116 18272080557917979021
3086196 2 18412823594610988873
449060 23 18334014999252700538

> <PUBCHEM_SHAPE_MULTIPOLES>
224.36
7.21
2.32
0.88
8.5
0.4
-0.15
-4.38
0.25
-3.5
0.09
0.12
0.11
-0.14

> <PUBCHEM_SHAPE_SELFOVERLAP>
397.893

> <PUBCHEM_SHAPE_VOLUME>
147.7

> <PUBCHEM_COORDINATE_TYPE>
2
5
10

$$$$
