20560352
  -OEChem-11232108593D

 19 19  0     0  0  0  0  0  0999 V2000
    0.9017    1.8024    0.0017 S   0  0  0  0  0  0  0  0  0  0  0  0
   -2.0950    1.3419   -0.0027 O   0  0  0  0  0  0  0  0  0  0  0  0
    0.7700   -0.7792   -0.0008 N   0  0  0  0  0  0  0  0  0  0  0  0
   -2.1345   -1.0495   -0.0049 C   0  0  0  0  0  0  0  0  0  0  0  0
   -1.4296    0.3044   -0.0023 C   0  0  0  0  0  0  0  0  0  0  0  0
    0.0435    0.3164   -0.0004 C   0  0  0  0  0  0  0  0  0  0  0  0
    2.1061   -0.4290    0.0005 C   0  0  0  0  0  0  0  0  0  0  0  0
   -3.6499   -0.9236    0.0070 C   0  0  0  0  0  0  0  0  0  0  0  0
    2.3744    0.9239    0.0020 C   0  0  0  0  0  0  0  0  0  0  0  0
    3.1134   -1.5077   -0.0002 C   0  0  0  0  0  0  0  0  0  0  0  0
   -1.8226   -1.5987   -0.9000 H   0  0  0  0  0  0  0  0  0  0  0  0
   -1.8106   -1.6088    0.8796 H   0  0  0  0  0  0  0  0  0  0  0  0
   -3.9931   -0.3864    0.8972 H   0  0  0  0  0  0  0  0  0  0  0  0
   -4.0064   -0.3788   -0.8735 H   0  0  0  0  0  0  0  0  0  0  0  0
   -4.1135   -1.9148    0.0062 H   0  0  0  0  0  0  0  0  0  0  0  0
    3.3318    1.4256    0.0034 H   0  0  0  0  0  0  0  0  0  0  0  0
    3.1938   -1.9510    0.9972 H   0  0  0  0  0  0  0  0  0  0  0  0
    2.8317   -2.2967   -0.7048 H   0  0  0  0  0  0  0  0  0  0  0  0
    4.1014   -1.1361   -0.2903 H   0  0  0  0  0  0  0  0  0  0  0  0
  1  6  1  0  0  0  0
  1  9  1  0  0  0  0
  2  5  2  0  0  0  0
  3  6  2  0  0  0  0
  3  7  1  0  0  0  0
  4  5  1  0  0  0  0
  4  8  1  0  0  0  0
  4 11  1  0  0  0  0
  4 12  1  0  0  0  0
  5  6  1  0  0  0  0
  7  9  2  0  0  0  0
  7 10  1  0  0  0  0
  8 13  1  0  0  0  0
  8 14  1  0  0  0  0
  8 15  1  0  0  0  0
  9 16  1  0  0  0  0
 10 17  1  0  0  0  0
 10 18  1  0  0  0  0
 10 19  1  0  0  0  0
M  END
> <PUBCHEM_COMPOUND_CID>
20560352

> <PUBCHEM_CONFORMER_RMSD>
0.4

> <PUBCHEM_CONFORMER_DIVERSEORDER>
1
16
22
20
5
12
19
14
13
17
10
6
11
7
21
4
3
8
15
9
18
2

> <PUBCHEM_MMFF94_PARTIAL_CHARGES>
10
1 -0.08
10 0.18
16 0.15
2 -0.57
3 -0.57
4 0.06
5 0.59
6 0.29
7 0.05
9 -0.11

> <PUBCHEM_EFFECTIVE_ROTOR_COUNT>
2

> <PUBCHEM_PHARMACOPHORE_FEATURES>
4
1 2 acceptor
1 3 acceptor
1 8 hydrophobe
5 1 3 6 7 9 rings

> <PUBCHEM_HEAVY_ATOM_COUNT>
10

> <PUBCHEM_ATOM_DEF_STEREO_COUNT>
0

> <PUBCHEM_ATOM_UDEF_STEREO_COUNT>
0

> <PUBCHEM_BOND_DEF_STEREO_COUNT>
0

> <PUBCHEM_BOND_UDEF_STEREO_COUNT>
0

> <PUBCHEM_ISOTOPIC_ATOM_COUNT>
0

> <PUBCHEM_COMPONENT_COUNT>
1

> <PUBCHEM_CACTVS_TAUTO_COUNT>
2

> <PUBCHEM_CONFORMER_ID>
0139B9E000000001

> <PUBCHEM_MMFF94_ENERGY>
7.0728

> <PUBCHEM_FEATURE_SELFOVERLAP>
20.297

> <PUBCHEM_SHAPE_FINGERPRINT>
11769659 78 18412258432707413311
12032990 46 18340491080001579294
12897270 3 18337109098050710901
12932764 1 17560795575858964933
14128692 85 18409173181947707980
14325111 11 18410573989457110849
16945 1 18266740375247747460
19973954 147 18410293618355833389
20201158 50 18335700602107022339
20645477 70 18410568518191463703
20653091 64 18408603665000009656
20711978 1 18410854382302360613
20871998 22 18199755752183690846
21501502 16 18410862057393432085
21501925 9 18337659871977609050
23552423 10 18260832591950142244
2748010 2 18411130316755662692
29004967 10 18412262835338879768
3248919 1 17458070390740768504
5084963 1 18342739632476870169
7364860 26 18270682094701051152

> <PUBCHEM_SHAPE_MULTIPOLES>
198.79
5.19
1.75
0.61
2.44
0.3
0
-2.24
-0.01
-0.66
0
-0.02
0.01
0

> <PUBCHEM_SHAPE_SELFOVERLAP>
388.089

> <PUBCHEM_SHAPE_VOLUME>
121.6

> <PUBCHEM_COORDINATE_TYPE>
2
5
10

$$$$
