205986
  -OEChem-11232108533D

 23 22  0     1  0  0  0  0  0999 V2000
    0.9392    1.4233   -0.2928 O   0  0  0  0  0  0  0  0  0  0  0  0
    0.5388   -0.9495   -0.1715 C   0  0  0  0  0  0  0  0  0  0  0  0
    1.4693    0.2035    0.2264 C   0  0  1  0  0  0  0  0  0  0  0  0
   -0.8581   -0.7394    0.3466 C   0  0  0  0  0  0  0  0  0  0  0  0
   -3.3245   -0.3827    0.0734 C   0  0  0  0  0  0  0  0  0  0  0  0
   -1.9336   -0.6028   -0.4431 C   0  0  0  0  0  0  0  0  0  0  0  0
    2.8425    0.0025   -0.3497 C   0  0  0  0  0  0  0  0  0  0  0  0
   -3.6317    1.0990    0.2245 C   0  0  0  0  0  0  0  0  0  0  0  0
    3.9582   -0.0538    0.3862 C   0  0  0  0  0  0  0  0  0  0  0  0
    0.9211   -1.8966    0.2286 H   0  0  0  0  0  0  0  0  0  0  0  0
    0.5138   -1.0513   -1.2647 H   0  0  0  0  0  0  0  0  0  0  0  0
    1.5076    0.3021    1.3175 H   0  0  0  0  0  0  0  0  0  0  0  0
   -0.9812   -0.7070    1.4264 H   0  0  0  0  0  0  0  0  0  0  0  0
   -3.4551   -0.8812    1.0413 H   0  0  0  0  0  0  0  0  0  0  0  0
   -4.0396   -0.8460   -0.6158 H   0  0  0  0  0  0  0  0  0  0  0  0
   -1.8124   -0.6250   -1.5232 H   0  0  0  0  0  0  0  0  0  0  0  0
    2.9293   -0.0907   -1.4296 H   0  0  0  0  0  0  0  0  0  0  0  0
   -2.9545    1.5752    0.9416 H   0  0  0  0  0  0  0  0  0  0  0  0
   -4.6560    1.2370    0.5854 H   0  0  0  0  0  0  0  0  0  0  0  0
   -3.5375    1.6224   -0.7330 H   0  0  0  0  0  0  0  0  0  0  0  0
    0.8519    1.3309   -1.2572 H   0  0  0  0  0  0  0  0  0  0  0  0
    4.9229   -0.1953   -0.0887 H   0  0  0  0  0  0  0  0  0  0  0  0
    3.9309    0.0390    1.4663 H   0  0  0  0  0  0  0  0  0  0  0  0
  1  3  1  0  0  0  0
  1 21  1  0  0  0  0
  2  3  1  0  0  0  0
  2  4  1  0  0  0  0
  2 10  1  0  0  0  0
  2 11  1  0  0  0  0
  3  7  1  0  0  0  0
  3 12  1  0  0  0  0
  4  6  2  3  0  0  0
  4 13  1  0  0  0  0
  5  6  1  0  0  0  0
  5  8  1  0  0  0  0
  5 14  1  0  0  0  0
  5 15  1  0  0  0  0
  6 16  1  0  0  0  0
  7  9  2  0  0  0  0
  7 17  1  0  0  0  0
  8 18  1  0  0  0  0
  8 19  1  0  0  0  0
  8 20  1  0  0  0  0
  9 22  1  0  0  0  0
  9 23  1  0  0  0  0
M  END
> <PUBCHEM_COMPOUND_CID>
205986

> <PUBCHEM_CONFORMER_RMSD>
0.6

> <PUBCHEM_CONFORMER_DIVERSEORDER>
2
30
21
22
27
13
7
12
29
18
15
25
4
5
26
8
23
3
24
16
14
17
6
10
28
9
1
20
19
11

> <PUBCHEM_MMFF94_PARTIAL_CHARGES>
14
1 -0.68
13 0.15
16 0.15
17 0.15
2 0.14
21 0.4
22 0.15
23 0.15
3 0.42
4 -0.29
5 0.14
6 -0.29
7 -0.29
9 -0.3

> <PUBCHEM_EFFECTIVE_ROTOR_COUNT>
4

> <PUBCHEM_PHARMACOPHORE_FEATURES>
4
1 1 acceptor
1 1 donor
1 8 hydrophobe
1 9 hydrophobe

> <PUBCHEM_HEAVY_ATOM_COUNT>
9

> <PUBCHEM_ATOM_DEF_STEREO_COUNT>
0

> <PUBCHEM_ATOM_UDEF_STEREO_COUNT>
0

> <PUBCHEM_BOND_DEF_STEREO_COUNT>
0

> <PUBCHEM_BOND_UDEF_STEREO_COUNT>
1

> <PUBCHEM_ISOTOPIC_ATOM_COUNT>
0

> <PUBCHEM_COMPONENT_COUNT>
1

> <PUBCHEM_CACTVS_TAUTO_COUNT>
1

> <PUBCHEM_CONFORMER_ID>
000324A200000002

> <PUBCHEM_MMFF94_ENERGY>
3.8771

> <PUBCHEM_FEATURE_SELFOVERLAP>
20.297

> <PUBCHEM_SHAPE_FINGERPRINT>
10130415 120 18113613500061324896
11062470 55 15985106322875884618
12932764 1 16371274631993299050
14325111 11 18411701018956222071
14390081 3 18343018896078121243
18342897 14 18260267442878649744
18511873 20 18335138708762814090
190213 19 12829204477364922990
20645477 70 16702031829027565094
21293036 1 10231752301626237242
23402539 116 14692573191218503427
42627469 27 18412832369408490211

> <PUBCHEM_SHAPE_MULTIPOLES>
179.35
6.98
1.14
0.7
0.12
0.23
0
1.19
0.58
-0.46
-0.04
0.05
-0.02
-0.13

> <PUBCHEM_SHAPE_SELFOVERLAP>
325.591

> <PUBCHEM_SHAPE_VOLUME>
114.7

> <PUBCHEM_COORDINATE_TYPE>
2
5
10

$$$$
