20836219
  -OEChem-11232108433D

 29 28  0     0  0  0  0  0  0999 V2000
   -0.0112   -0.4866    0.1650 O   0  0  0  0  0  0  0  0  0  0  0  0
    1.9273   -1.7340    0.1452 O   0  0  0  0  0  0  0  0  0  0  0  0
    4.2103   -0.3134    0.0151 O   0  0  0  0  0  0  0  0  0  0  0  0
   -2.2671   -1.3260    0.2507 C   0  0  0  0  0  0  0  0  0  0  0  0
   -0.7846   -1.6784    0.2192 C   0  0  0  0  0  0  0  0  0  0  0  0
   -2.6883   -0.5837   -0.9862 C   0  0  0  0  0  0  0  0  0  0  0  0
   -3.4282    1.4527    0.2755 C   0  0  0  0  0  0  0  0  0  0  0  0
   -3.2054    0.6538   -0.9744 C   0  0  0  0  0  0  0  0  0  0  0  0
    2.0123    0.6967    0.0559 C   0  0  0  0  0  0  0  0  0  0  0  0
    1.3493   -0.6565    0.1317 C   0  0  0  0  0  0  0  0  0  0  0  0
   -4.8126    1.2026    0.8534 C   0  0  0  0  0  0  0  0  0  0  0  0
    3.5258    0.7074   -0.0233 C   0  0  0  0  0  0  0  0  0  0  0  0
    4.1723    2.0653   -0.1277 C   0  0  0  0  0  0  0  0  0  0  0  0
   -2.4816   -0.7806    1.1727 H   0  0  0  0  0  0  0  0  0  0  0  0
   -2.8492   -2.2540    0.3029 H   0  0  0  0  0  0  0  0  0  0  0  0
   -0.5609   -2.3011   -0.6559 H   0  0  0  0  0  0  0  0  0  0  0  0
   -0.5269   -2.2397    1.1251 H   0  0  0  0  0  0  0  0  0  0  0  0
   -2.5758   -1.0938   -1.9393 H   0  0  0  0  0  0  0  0  0  0  0  0
   -2.6554    1.2800    1.0305 H   0  0  0  0  0  0  0  0  0  0  0  0
   -3.3395    2.5150    0.0151 H   0  0  0  0  0  0  0  0  0  0  0  0
   -3.5011    1.1066   -1.9170 H   0  0  0  0  0  0  0  0  0  0  0  0
    1.6354    1.2031   -0.8395 H   0  0  0  0  0  0  0  0  0  0  0  0
    1.7268    1.2605    0.9505 H   0  0  0  0  0  0  0  0  0  0  0  0
   -5.5956    1.4368    0.1241 H   0  0  0  0  0  0  0  0  0  0  0  0
   -4.9729    1.8343    1.7330 H   0  0  0  0  0  0  0  0  0  0  0  0
   -4.9350    0.1590    1.1617 H   0  0  0  0  0  0  0  0  0  0  0  0
    3.9358    2.6528    0.7628 H   0  0  0  0  0  0  0  0  0  0  0  0
    3.8107    2.5755   -1.0238 H   0  0  0  0  0  0  0  0  0  0  0  0
    5.2576    1.9530   -0.2007 H   0  0  0  0  0  0  0  0  0  0  0  0
  1  5  1  0  0  0  0
  1 10  1  0  0  0  0
  2 10  2  0  0  0  0
  3 12  2  0  0  0  0
  4  5  1  0  0  0  0
  4  6  1  0  0  0  0
  4 14  1  0  0  0  0
  4 15  1  0  0  0  0
  5 16  1  0  0  0  0
  5 17  1  0  0  0  0
  6  8  2  0  0  0  0
  6 18  1  0  0  0  0
  7  8  1  0  0  0  0
  7 11  1  0  0  0  0
  7 19  1  0  0  0  0
  7 20  1  0  0  0  0
  8 21  1  0  0  0  0
  9 10  1  0  0  0  0
  9 12  1  0  0  0  0
  9 22  1  0  0  0  0
  9 23  1  0  0  0  0
 11 24  1  0  0  0  0
 11 25  1  0  0  0  0
 11 26  1  0  0  0  0
 12 13  1  0  0  0  0
 13 27  1  0  0  0  0
 13 28  1  0  0  0  0
 13 29  1  0  0  0  0
M  END
> <PUBCHEM_COMPOUND_CID>
20836219

> <PUBCHEM_CONFORMER_RMSD>
1

> <PUBCHEM_CONFORMER_DIVERSEORDER>
1
66
34
67
65
42
68
24
38
17
4
69
50
78
70
30
11
44
41
20
71
8
6
79
54
13
75
53
59
60
56
19
15
31
76
39
32
58
2
63
35
5
22
52
27
62
47
7
55
40
14
73
21
25
48
46
10
18
72
77
49
3
9
37
23
12
45
16
29
43
57
36
74
64
33
28
26
61
51

> <PUBCHEM_MMFF94_PARTIAL_CHARGES>
14
1 -0.43
10 0.66
12 0.45
13 0.06
18 0.15
2 -0.57
21 0.15
3 -0.57
4 0.14
5 0.28
6 -0.29
7 0.14
8 -0.29
9 0.12

> <PUBCHEM_EFFECTIVE_ROTOR_COUNT>
7

> <PUBCHEM_PHARMACOPHORE_FEATURES>
4
1 11 hydrophobe
1 2 acceptor
1 3 acceptor
1 9 anion

> <PUBCHEM_HEAVY_ATOM_COUNT>
13

> <PUBCHEM_ATOM_DEF_STEREO_COUNT>
0

> <PUBCHEM_ATOM_UDEF_STEREO_COUNT>
0

> <PUBCHEM_BOND_DEF_STEREO_COUNT>
1

> <PUBCHEM_BOND_UDEF_STEREO_COUNT>
0

> <PUBCHEM_ISOTOPIC_ATOM_COUNT>
0

> <PUBCHEM_COMPONENT_COUNT>
1

> <PUBCHEM_CACTVS_TAUTO_COUNT>
5

> <PUBCHEM_CONFORMER_ID>
013DEF7B00000001

> <PUBCHEM_MMFF94_ENERGY>
7.8349

> <PUBCHEM_FEATURE_SELFOVERLAP>
20.304

> <PUBCHEM_SHAPE_FINGERPRINT>
11046707 91 8646774395543689245
11615756 256 18263365952661431516
122479 349 18408325501163418219
14123255 52 18337670802785681533
14123260 362 18060426798215728345
14415576 193 18410574011459370854
15501527 16 18409451401075678488
15775835 57 18341895160766386349
1741750 31 18412261761370462291
17834072 32 18410859896850984289
18186145 218 18336262353738174862
20112054 13 17967814891122148837
20211469 26 8574424323181482483
20300324 65 18130217263896642991
20621476 66 18412270514857001672
20645477 56 18260551117063284431
20645477 70 17703806833587752574
20671657 53 14333404558062407651
20711983 171 17988638580194532967
20828058 19 9367337137894649867
20871999 31 16988272175269471343
21652331 79 18408886209497735069
22182937 141 18337678623773103505
22485316 2 9583527516009469030
23402539 116 17846493738604704148
23402655 69 18201439211933630412
23403322 49 9871751282623373505
23500284 214 18334298673426369899
23557571 272 18129952302842682887
23590187 138 18412265047220968721
24859131 72 11602536524892114313
27216 239 18186805798826267345
5104073 3 18261669363533383738
633830 44 18411699911387384174
6430166 295 18409161108810404626
76465 3 9583526390833733956
8199 26 18411983559195793345
9882013 296 12179846091128532976

> <PUBCHEM_SHAPE_MULTIPOLES>
249.93
9.57
1.99
0.83
1.48
0.07
-0.11
5.88
0.49
0.19
0.19
-0.78
0.08
-0.53

> <PUBCHEM_SHAPE_SELFOVERLAP>
469.778

> <PUBCHEM_SHAPE_VOLUME>
154.6

> <PUBCHEM_COORDINATE_TYPE>
2
5
10

$$$$
