20836197
  -OEChem-11232108423D

 35 34  0     1  0  0  0  0  0999 V2000
    1.8502    1.6760    0.9776 O   0  0  0  0  0  0  0  0  0  0  0  0
   -1.9608    0.3619    0.2673 C   0  0  0  0  0  0  0  0  0  0  0  0
   -0.6983    0.0788   -0.6377 C   0  0  1  0  0  0  0  0  0  0  0  0
    0.3279   -0.9292   -0.0810 C   0  0  0  0  0  0  0  0  0  0  0  0
   -2.5117    1.7953    0.1501 C   0  0  0  0  0  0  0  0  0  0  0  0
   -3.0989   -0.6239   -0.0772 C   0  0  0  0  0  0  0  0  0  0  0  0
   -1.5909    0.1336    1.7530 C   0  0  0  0  0  0  0  0  0  0  0  0
   -1.0344   -0.2621   -2.1018 C   0  0  0  0  0  0  0  0  0  0  0  0
    1.5971   -0.5601    0.2206 C   0  0  0  0  0  0  0  0  0  0  0  0
   -0.1321   -2.3633    0.0626 C   0  0  0  0  0  0  0  0  0  0  0  0
    2.7010   -1.4650    0.6837 C   0  0  0  0  0  0  0  0  0  0  0  0
    1.9975    0.8719    0.0598 C   0  0  0  0  0  0  0  0  0  0  0  0
    2.5533    1.2859   -1.2770 C   0  0  0  0  0  0  0  0  0  0  0  0
   -0.2144    1.0589   -0.7097 H   0  0  0  0  0  0  0  0  0  0  0  0
   -1.7570    2.5305    0.4511 H   0  0  0  0  0  0  0  0  0  0  0  0
   -2.8006    2.0197   -0.8822 H   0  0  0  0  0  0  0  0  0  0  0  0
   -3.3945    1.9430    0.7822 H   0  0  0  0  0  0  0  0  0  0  0  0
   -2.7820   -1.6686   -0.0419 H   0  0  0  0  0  0  0  0  0  0  0  0
   -3.9292   -0.5183    0.6319 H   0  0  0  0  0  0  0  0  0  0  0  0
   -3.5131   -0.4289   -1.0724 H   0  0  0  0  0  0  0  0  0  0  0  0
   -1.4028   -0.9076    2.0152 H   0  0  0  0  0  0  0  0  0  0  0  0
   -2.4145    0.4549    2.4038 H   0  0  0  0  0  0  0  0  0  0  0  0
   -0.7172    0.7299    2.0390 H   0  0  0  0  0  0  0  0  0  0  0  0
   -1.5519   -1.2200   -2.2077 H   0  0  0  0  0  0  0  0  0  0  0  0
   -1.6696    0.5136   -2.5425 H   0  0  0  0  0  0  0  0  0  0  0  0
   -0.1204   -0.3147   -2.7046 H   0  0  0  0  0  0  0  0  0  0  0  0
   -0.8993   -2.4882    0.8261 H   0  0  0  0  0  0  0  0  0  0  0  0
    0.6831   -3.0406    0.3345 H   0  0  0  0  0  0  0  0  0  0  0  0
   -0.5280   -2.7374   -0.8861 H   0  0  0  0  0  0  0  0  0  0  0  0
    2.9544   -2.1924   -0.0940 H   0  0  0  0  0  0  0  0  0  0  0  0
    2.4106   -1.9972    1.5951 H   0  0  0  0  0  0  0  0  0  0  0  0
    3.6110   -0.9011    0.9154 H   0  0  0  0  0  0  0  0  0  0  0  0
    1.9174    2.0629   -1.7090 H   0  0  0  0  0  0  0  0  0  0  0  0
    2.5868    0.4390   -1.9681 H   0  0  0  0  0  0  0  0  0  0  0  0
    3.5697    1.6640   -1.1408 H   0  0  0  0  0  0  0  0  0  0  0  0
  1 12  2  0  0  0  0
  2  3  1  0  0  0  0
  2  5  1  0  0  0  0
  2  6  1  0  0  0  0
  2  7  1  0  0  0  0
  3  4  1  0  0  0  0
  3  8  1  0  0  0  0
  3 14  1  0  0  0  0
  4  9  2  0  0  0  0
  4 10  1  0  0  0  0
  5 15  1  0  0  0  0
  5 16  1  0  0  0  0
  5 17  1  0  0  0  0
  6 18  1  0  0  0  0
  6 19  1  0  0  0  0
  6 20  1  0  0  0  0
  7 21  1  0  0  0  0
  7 22  1  0  0  0  0
  7 23  1  0  0  0  0
  8 24  1  0  0  0  0
  8 25  1  0  0  0  0
  8 26  1  0  0  0  0
  9 11  1  0  0  0  0
  9 12  1  0  0  0  0
 10 27  1  0  0  0  0
 10 28  1  0  0  0  0
 10 29  1  0  0  0  0
 11 30  1  0  0  0  0
 11 31  1  0  0  0  0
 11 32  1  0  0  0  0
 12 13  1  0  0  0  0
 13 33  1  0  0  0  0
 13 34  1  0  0  0  0
 13 35  1  0  0  0  0
M  END
> <PUBCHEM_COMPOUND_CID>
20836197

> <PUBCHEM_CONFORMER_RMSD>
0.6

> <PUBCHEM_CONFORMER_DIVERSEORDER>
1
3
7
6
2
5
4

> <PUBCHEM_MMFF94_PARTIAL_CHARGES>
8
1 -0.57
10 0.14
11 0.14
12 0.49
13 0.06
3 0.14
4 -0.28
9 -0.12

> <PUBCHEM_EFFECTIVE_ROTOR_COUNT>
3

> <PUBCHEM_PHARMACOPHORE_FEATURES>
5
1 1 acceptor
1 10 hydrophobe
1 11 hydrophobe
1 8 hydrophobe
4 2 5 6 7 hydrophobe

> <PUBCHEM_HEAVY_ATOM_COUNT>
13

> <PUBCHEM_ATOM_DEF_STEREO_COUNT>
0

> <PUBCHEM_ATOM_UDEF_STEREO_COUNT>
1

> <PUBCHEM_BOND_DEF_STEREO_COUNT>
1

> <PUBCHEM_BOND_UDEF_STEREO_COUNT>
0

> <PUBCHEM_ISOTOPIC_ATOM_COUNT>
0

> <PUBCHEM_COMPONENT_COUNT>
1

> <PUBCHEM_CACTVS_TAUTO_COUNT>
8

> <PUBCHEM_CONFORMER_ID>
013DEF6500000001

> <PUBCHEM_MMFF94_ENERGY>
42.6768

> <PUBCHEM_FEATURE_SELFOVERLAP>
25.374

> <PUBCHEM_SHAPE_FINGERPRINT>
12423570 1 17389355397961227295
12932764 1 18272375290857046705
15775835 57 18272657847975845769
16945 1 18119530083504144539
17357990 137 17417545613376934584
17834069 17 18187661226845374546
20082192 1 17678434550071645550
20653085 51 16916526837690263936
20671657 1 18260834834392588868
21028194 46 18272654562357148978
21061003 4 17972594381926204506
21501502 16 18334018250674565545
22802520 49 14261359045930766565
23402539 116 14907030692085054081
23419403 2 15894130231017133752
23557571 272 15697416940730988999
305870 269 18411689972632522968
3286 77 18334287643739655899
369184 2 18410289212024914145
430814 3 18115599282369631324
5084963 1 18060139808221369499
549884 4 17917721239791799416
63268167 104 18201158763058425736
81228 2 17621326061932795906

> <PUBCHEM_SHAPE_MULTIPOLES>
261.66
4.29
1.96
1.46
0.13
0.31
-0.35
-0.9
0.41
-0.62
0.11
0.3
-0.19
-0.45

> <PUBCHEM_SHAPE_SELFOVERLAP>
498.225

> <PUBCHEM_SHAPE_VOLUME>
163.5

> <PUBCHEM_COORDINATE_TYPE>
2
5
10

$$$$
