20839647
  -OEChem-11232109043D

 34 33  0     0  0  0  0  0  0999 V2000
   -0.2329    0.7429   -0.2010 O   0  0  0  0  0  0  0  0  0  0  0  0
    1.5267    2.2278   -0.2659 O   0  0  0  0  0  0  0  0  0  0  0  0
   -2.5854    1.2896   -0.2754 C   0  0  0  0  0  0  0  0  0  0  0  0
   -1.1605    1.8301   -0.2858 C   0  0  0  0  0  0  0  0  0  0  0  0
   -2.8899    0.5495    0.9967 C   0  0  0  0  0  0  0  0  0  0  0  0
    1.9203   -0.1430   -0.1020 C   0  0  0  0  0  0  0  0  0  0  0  0
   -3.3793   -1.6137   -0.1725 C   0  0  0  0  0  0  0  0  0  0  0  0
    4.1246   -1.0762    0.7754 C   0  0  0  0  0  0  0  0  0  0  0  0
   -3.2434   -0.7436    1.0416 C   0  0  0  0  0  0  0  0  0  0  0  0
    3.1050   -0.0017    0.5211 C   0  0  0  0  0  0  0  0  0  0  0  0
    1.0833    1.0900   -0.2009 C   0  0  0  0  0  0  0  0  0  0  0  0
    1.4064   -1.4054   -0.7278 C   0  0  0  0  0  0  0  0  0  0  0  0
    5.1176   -1.1800   -0.3710 C   0  0  0  0  0  0  0  0  0  0  0  0
   -4.7924   -1.5663   -0.7326 C   0  0  0  0  0  0  0  0  0  0  0  0
   -2.7405    0.6844   -1.1716 H   0  0  0  0  0  0  0  0  0  0  0  0
   -3.2830    2.1324   -0.3516 H   0  0  0  0  0  0  0  0  0  0  0  0
   -1.0035    2.5088    0.5617 H   0  0  0  0  0  0  0  0  0  0  0  0
   -0.9873    2.3810   -1.2177 H   0  0  0  0  0  0  0  0  0  0  0  0
   -2.8302    1.1075    1.9275 H   0  0  0  0  0  0  0  0  0  0  0  0
    4.6567   -0.8448    1.7056 H   0  0  0  0  0  0  0  0  0  0  0  0
    3.6392   -2.0451    0.9364 H   0  0  0  0  0  0  0  0  0  0  0  0
   -2.6457   -1.3740   -0.9482 H   0  0  0  0  0  0  0  0  0  0  0  0
   -3.1508   -2.6445    0.1260 H   0  0  0  0  0  0  0  0  0  0  0  0
   -3.4648   -1.1925    2.0063 H   0  0  0  0  0  0  0  0  0  0  0  0
    3.3863    0.9738    0.9155 H   0  0  0  0  0  0  0  0  0  0  0  0
    1.0296   -1.2040   -1.7365 H   0  0  0  0  0  0  0  0  0  0  0  0
    2.1782   -2.1738   -0.8249 H   0  0  0  0  0  0  0  0  0  0  0  0
    0.5898   -1.8231   -0.1299 H   0  0  0  0  0  0  0  0  0  0  0  0
    4.6202   -1.4463   -1.3095 H   0  0  0  0  0  0  0  0  0  0  0  0
    5.8635   -1.9516   -0.1548 H   0  0  0  0  0  0  0  0  0  0  0  0
    5.6467   -0.2330   -0.5230 H   0  0  0  0  0  0  0  0  0  0  0  0
   -5.5284   -1.8694    0.0200 H   0  0  0  0  0  0  0  0  0  0  0  0
   -4.8826   -2.2480   -1.5844 H   0  0  0  0  0  0  0  0  0  0  0  0
   -5.0525   -0.5602   -1.0779 H   0  0  0  0  0  0  0  0  0  0  0  0
  1  4  1  0  0  0  0
  1 11  1  0  0  0  0
  2 11  2  0  0  0  0
  3  4  1  0  0  0  0
  3  5  1  0  0  0  0
  3 15  1  0  0  0  0
  3 16  1  0  0  0  0
  4 17  1  0  0  0  0
  4 18  1  0  0  0  0
  5  9  2  0  0  0  0
  5 19  1  0  0  0  0
  6 10  2  0  0  0  0
  6 11  1  0  0  0  0
  6 12  1  0  0  0  0
  7  9  1  0  0  0  0
  7 14  1  0  0  0  0
  7 22  1  0  0  0  0
  7 23  1  0  0  0  0
  8 10  1  0  0  0  0
  8 13  1  0  0  0  0
  8 20  1  0  0  0  0
  8 21  1  0  0  0  0
  9 24  1  0  0  0  0
 10 25  1  0  0  0  0
 12 26  1  0  0  0  0
 12 27  1  0  0  0  0
 12 28  1  0  0  0  0
 13 29  1  0  0  0  0
 13 30  1  0  0  0  0
 13 31  1  0  0  0  0
 14 32  1  0  0  0  0
 14 33  1  0  0  0  0
 14 34  1  0  0  0  0
M  END
> <PUBCHEM_COMPOUND_CID>
20839647

> <PUBCHEM_CONFORMER_RMSD>
1

> <PUBCHEM_CONFORMER_DIVERSEORDER>
1
84
7
44
54
65
59
11
53
45
52
73
19
66
83
26
76
89
91
24
5
75
70
64
79
29
47
57
46
23
49
61
33
22
85
2
71
15
86
28
14
56
37
78
43
10
67
68
18
9
63
90
40
6
30
60
48
51
62
25
55
4
50
82
92
12
87
39
20
81
35
27
32
58
13
74
41
77
31
72
17
3
36
8
42
80
21
34
16
88
69
38

> <PUBCHEM_MMFF94_PARTIAL_CHARGES>
15
1 -0.43
10 -0.29
11 0.71
12 0.14
19 0.15
2 -0.57
24 0.15
25 0.15
3 0.14
4 0.28
5 -0.29
6 -0.12
7 0.14
8 0.14
9 -0.29

> <PUBCHEM_EFFECTIVE_ROTOR_COUNT>
7

> <PUBCHEM_PHARMACOPHORE_FEATURES>
4
1 12 hydrophobe
1 13 hydrophobe
1 14 hydrophobe
1 2 acceptor

> <PUBCHEM_HEAVY_ATOM_COUNT>
14

> <PUBCHEM_ATOM_DEF_STEREO_COUNT>
0

> <PUBCHEM_ATOM_UDEF_STEREO_COUNT>
0

> <PUBCHEM_BOND_DEF_STEREO_COUNT>
2

> <PUBCHEM_BOND_UDEF_STEREO_COUNT>
0

> <PUBCHEM_ISOTOPIC_ATOM_COUNT>
0

> <PUBCHEM_COMPONENT_COUNT>
1

> <PUBCHEM_CACTVS_TAUTO_COUNT>
1

> <PUBCHEM_CONFORMER_ID>
013DFCDF00000001

> <PUBCHEM_MMFF94_ENERGY>
11.5891

> <PUBCHEM_FEATURE_SELFOVERLAP>
20.297

> <PUBCHEM_SHAPE_FINGERPRINT>
11046707 91 18410011022339573259
12032990 46 18339927013651748276
14123255 352 10951760855192766074
14123260 362 8214147382325642135
14178342 30 18058744493832667897
14251752 14 17531517699442375199
18186145 218 12036029957810448292
19433438 48 18272375265303624955
200 152 18272926155210165199
20261772 1 18060133279950558462
20279233 1 18269839726875494877
20281475 54 18335702685493032960
20645477 70 18188766288003439583
20671657 53 18261110824632908405
20828058 19 18335982077595292817
20871999 31 17095239189942177565
21501925 9 18410569625791515225
232386 152 18187939351826631222
23402539 116 16733270041220718748
23402655 69 11602536524570191698
23559900 14 18337661001480700353
23622692 118 18341045298397095437
24859131 72 18201719565713023231
25 1 9223236242895085109
27216 239 11815895682715200279
2871803 45 18259977202111129811
3286 77 17775000245302232523
76465 3 18334850619357308146

> <PUBCHEM_SHAPE_MULTIPOLES>
276.37
9.74
2.13
0.94
2.55
0.47
0.14
-6.41
0.32
-0.86
-0.41
-0.32
-0.16
-0.32

> <PUBCHEM_SHAPE_SELFOVERLAP>
519.789

> <PUBCHEM_SHAPE_VOLUME>
171.8

> <PUBCHEM_COORDINATE_TYPE>
2
5
10

$$$$
