20836301
  -OEChem-11232108533D

 36 35  0     0  0  0  0  0  0999 V2000
    0.1433    0.0184   -0.5431 O   0  0  0  0  0  0  0  0  0  0  0  0
    2.1047    0.4144   -1.6918 O   0  0  0  0  0  0  0  0  0  0  0  0
    2.1633   -0.1910    0.6622 C   0  0  0  0  0  0  0  0  0  0  0  0
    3.0830   -1.4135    0.5099 C   0  0  0  0  0  0  0  0  0  0  0  0
    2.9612    1.0322    1.1423 C   0  0  0  0  0  0  0  0  0  0  0  0
    1.4984    0.1200   -0.6695 C   0  0  0  0  0  0  0  0  0  0  0  0
    2.3244   -2.6740    0.1141 C   0  0  0  0  0  0  0  0  0  0  0  0
    2.0883    2.2670    1.3283 C   0  0  0  0  0  0  0  0  0  0  0  0
   -0.6078    0.2864   -1.7313 C   0  0  0  0  0  0  0  0  0  0  0  0
   -2.0963    0.1357   -1.4412 C   0  0  0  0  0  0  0  0  0  0  0  0
   -2.5608    1.1121   -0.3974 C   0  0  0  0  0  0  0  0  0  0  0  0
   -3.1039    0.7501    0.7744 C   0  0  0  0  0  0  0  0  0  0  0  0
   -3.3162   -0.6754    1.1902 C   0  0  0  0  0  0  0  0  0  0  0  0
   -4.6817   -1.1824    0.7530 C   0  0  0  0  0  0  0  0  0  0  0  0
    1.3900   -0.4204    1.4069 H   0  0  0  0  0  0  0  0  0  0  0  0
    3.5987   -1.6003    1.4597 H   0  0  0  0  0  0  0  0  0  0  0  0
    3.8581   -1.2177   -0.2413 H   0  0  0  0  0  0  0  0  0  0  0  0
    3.4458    0.7970    2.0976 H   0  0  0  0  0  0  0  0  0  0  0  0
    3.7599    1.2706    0.4290 H   0  0  0  0  0  0  0  0  0  0  0  0
    1.8703   -2.5776   -0.8768 H   0  0  0  0  0  0  0  0  0  0  0  0
    3.0075   -3.5290    0.0847 H   0  0  0  0  0  0  0  0  0  0  0  0
    1.5331   -2.8981    0.8365 H   0  0  0  0  0  0  0  0  0  0  0  0
    2.6834    3.0868    1.7434 H   0  0  0  0  0  0  0  0  0  0  0  0
    1.6666    2.6118    0.3793 H   0  0  0  0  0  0  0  0  0  0  0  0
    1.2643    2.0639    2.0197 H   0  0  0  0  0  0  0  0  0  0  0  0
   -0.3878    1.3033   -2.0789 H   0  0  0  0  0  0  0  0  0  0  0  0
   -0.3155   -0.4258   -2.5119 H   0  0  0  0  0  0  0  0  0  0  0  0
   -2.3015   -0.9043   -1.1776 H   0  0  0  0  0  0  0  0  0  0  0  0
   -2.6571    0.3335   -2.3627 H   0  0  0  0  0  0  0  0  0  0  0  0
   -2.4580    2.1708   -0.6207 H   0  0  0  0  0  0  0  0  0  0  0  0
   -3.4299    1.5257    1.4621 H   0  0  0  0  0  0  0  0  0  0  0  0
   -2.5232   -1.3412    0.8364 H   0  0  0  0  0  0  0  0  0  0  0  0
   -3.2562   -0.7181    2.2850 H   0  0  0  0  0  0  0  0  0  0  0  0
   -4.8361   -2.2050    1.1122 H   0  0  0  0  0  0  0  0  0  0  0  0
   -4.7747   -1.1917   -0.3381 H   0  0  0  0  0  0  0  0  0  0  0  0
   -5.4855   -0.5586    1.1585 H   0  0  0  0  0  0  0  0  0  0  0  0
  1  6  1  0  0  0  0
  1  9  1  0  0  0  0
  2  6  2  0  0  0  0
  3  4  1  0  0  0  0
  3  5  1  0  0  0  0
  3  6  1  0  0  0  0
  3 15  1  0  0  0  0
  4  7  1  0  0  0  0
  4 16  1  0  0  0  0
  4 17  1  0  0  0  0
  5  8  1  0  0  0  0
  5 18  1  0  0  0  0
  5 19  1  0  0  0  0
  7 20  1  0  0  0  0
  7 21  1  0  0  0  0
  7 22  1  0  0  0  0
  8 23  1  0  0  0  0
  8 24  1  0  0  0  0
  8 25  1  0  0  0  0
  9 10  1  0  0  0  0
  9 26  1  0  0  0  0
  9 27  1  0  0  0  0
 10 11  1  0  0  0  0
 10 28  1  0  0  0  0
 10 29  1  0  0  0  0
 11 12  2  0  0  0  0
 11 30  1  0  0  0  0
 12 13  1  0  0  0  0
 12 31  1  0  0  0  0
 13 14  1  0  0  0  0
 13 32  1  0  0  0  0
 13 33  1  0  0  0  0
 14 34  1  0  0  0  0
 14 35  1  0  0  0  0
 14 36  1  0  0  0  0
M  END
> <PUBCHEM_COMPOUND_CID>
20836301

> <PUBCHEM_CONFORMER_RMSD>
1

> <PUBCHEM_CONFORMER_DIVERSEORDER>
1
77
236
252
105
5
486
388
285
223
195
23
18
217
13
230
2
276
148
44
7
440
279
95
53
59
234
497
11
163
258
430
42
50
12
402
247
21
394
177
91
167
9
84
288
15
28
426
231
40
127
62
129
433
291
270
22
3
70
308
6
58
256
409
494
101
35
41
4
261

> <PUBCHEM_MMFF94_PARTIAL_CHARGES>
11
1 -0.43
10 0.14
11 -0.29
12 -0.29
13 0.14
2 -0.57
3 0.06
30 0.15
31 0.15
6 0.66
9 0.28

> <PUBCHEM_EFFECTIVE_ROTOR_COUNT>
8

> <PUBCHEM_PHARMACOPHORE_FEATURES>
4
1 14 hydrophobe
1 2 acceptor
1 7 hydrophobe
1 8 hydrophobe

> <PUBCHEM_HEAVY_ATOM_COUNT>
14

> <PUBCHEM_ATOM_DEF_STEREO_COUNT>
0

> <PUBCHEM_ATOM_UDEF_STEREO_COUNT>
0

> <PUBCHEM_BOND_DEF_STEREO_COUNT>
1

> <PUBCHEM_BOND_UDEF_STEREO_COUNT>
0

> <PUBCHEM_ISOTOPIC_ATOM_COUNT>
0

> <PUBCHEM_COMPONENT_COUNT>
1

> <PUBCHEM_CACTVS_TAUTO_COUNT>
1

> <PUBCHEM_CONFORMER_ID>
013DEFCD00000001

> <PUBCHEM_MMFF94_ENERGY>
6.9088

> <PUBCHEM_FEATURE_SELFOVERLAP>
20.297

> <PUBCHEM_SHAPE_FINGERPRINT>
10366900 7 18337961189555488801
11086676 242 17702939236981783424
12006461 19 18041285348479344059
12202030 40 17822564997828810794
12346177 29 17168412784651852245
12932764 1 18272368667906654901
13533116 47 18411137996779836067
13583140 156 18342167852582449533
13764800 53 15123511458230859007
14123260 362 14764351569749009865
14251764 30 17986121708138461854
15342816 4 15791737459546649627
15775835 57 13973971995382129963
17357990 137 16988837289559465636
17834072 14 17313655062340517503
18186145 218 12535632652519534595
19107657 9 15267348435341527881
20442098 301 17603307033569465699
20539784 86 18341886403306834560
20653085 51 10447933871453981901
20671657 53 15574712538846829015
20828058 19 17240489139112138631
21524375 3 17414129624440161800
22169311 14 18338516322779363337
23557571 272 17749378283033485089
23559900 14 18186241723343624709
251288 83 17459185342734003088
31174 14 18341330071602857713
3286 77 18410013217284295515
449060 23 16950570926127064191
603831 33 14056722309682311182
8988823 20 18342170124957583827
9882013 296 17822569533314418401

> <PUBCHEM_SHAPE_MULTIPOLES>
276.37
7.45
2.04
1.66
6.22
0.54
-0.54
1.78
3.2
-1.91
0.81
0.25
-0.33
0.87

> <PUBCHEM_SHAPE_SELFOVERLAP>
513.873

> <PUBCHEM_SHAPE_VOLUME>
173.8

> <PUBCHEM_COORDINATE_TYPE>
2
5
10

$$$$
