20838599
  -OEChem-11232109263D

 45 46  0     1  0  0  0  0  0999 V2000
   -0.7952   -0.7505    0.0248 O   0  0  0  0  0  0  0  0  0  0  0  0
    0.5352   -2.6386    0.0760 O   0  0  0  0  0  0  0  0  0  0  0  0
   -3.1765   -0.6257    0.0122 C   0  0  1  0  0  0  0  0  0  0  0  0
   -1.9705   -1.5619    0.0398 C   0  0  0  0  0  0  0  0  0  0  0  0
   -3.1789    0.3100    1.2252 C   0  0  0  0  0  0  0  0  0  0  0  0
   -3.2028    0.1918   -1.2893 C   0  0  0  0  0  0  0  0  0  0  0  0
   -4.4173    1.2119    1.2268 C   0  0  0  0  0  0  0  0  0  0  0  0
   -4.7495    1.7890   -0.1264 C   0  0  0  0  0  0  0  0  0  0  0  0
   -4.1822    1.3283   -1.2545 C   0  0  0  0  0  0  0  0  0  0  0  0
   -1.9675   -2.3979    1.3189 C   0  0  0  0  0  0  0  0  0  0  0  0
   -1.9578   -2.4589   -1.1973 C   0  0  0  0  0  0  0  0  0  0  0  0
   -5.7512    2.9055   -0.1409 C   0  0  0  0  0  0  0  0  0  0  0  0
    0.3864   -1.4272    0.0460 C   0  0  0  0  0  0  0  0  0  0  0  0
    1.4786   -0.4278    0.0277 C   0  0  0  0  0  0  0  0  0  0  0  0
    2.7535   -0.8421    0.0445 C   0  0  0  0  0  0  0  0  0  0  0  0
    3.9243    0.0523    0.0188 C   0  0  0  0  0  0  0  0  0  0  0  0
    3.7881    1.3903    0.3886 C   0  0  0  0  0  0  0  0  0  0  0  0
    5.1690   -0.4391   -0.3753 C   0  0  0  0  0  0  0  0  0  0  0  0
    4.8963    2.2371    0.3641 C   0  0  0  0  0  0  0  0  0  0  0  0
    6.2772    0.4077   -0.3998 C   0  0  0  0  0  0  0  0  0  0  0  0
    6.1407    1.7459   -0.0301 C   0  0  0  0  0  0  0  0  0  0  0  0
   -4.0962   -1.2284    0.0506 H   0  0  0  0  0  0  0  0  0  0  0  0
   -3.1716   -0.2442    2.1695 H   0  0  0  0  0  0  0  0  0  0  0  0
   -2.2821    0.9433    1.2215 H   0  0  0  0  0  0  0  0  0  0  0  0
   -2.2177    0.6121   -1.5240 H   0  0  0  0  0  0  0  0  0  0  0  0
   -3.4829   -0.4588   -2.1262 H   0  0  0  0  0  0  0  0  0  0  0  0
   -4.2537    2.0224    1.9472 H   0  0  0  0  0  0  0  0  0  0  0  0
   -5.2835    0.6381    1.5797 H   0  0  0  0  0  0  0  0  0  0  0  0
   -4.4313    1.7831   -2.2097 H   0  0  0  0  0  0  0  0  0  0  0  0
   -1.3563   -3.3029    1.2447 H   0  0  0  0  0  0  0  0  0  0  0  0
   -2.9774   -2.7505    1.5597 H   0  0  0  0  0  0  0  0  0  0  0  0
   -1.5823   -1.8368    2.1777 H   0  0  0  0  0  0  0  0  0  0  0  0
   -1.3204   -3.3421   -1.0928 H   0  0  0  0  0  0  0  0  0  0  0  0
   -2.9609   -2.8497   -1.4059 H   0  0  0  0  0  0  0  0  0  0  0  0
   -1.6029   -1.9259   -2.0868 H   0  0  0  0  0  0  0  0  0  0  0  0
   -5.3831    3.7540    0.4447 H   0  0  0  0  0  0  0  0  0  0  0  0
   -5.9560    3.2639   -1.1551 H   0  0  0  0  0  0  0  0  0  0  0  0
   -6.6992    2.5693    0.2915 H   0  0  0  0  0  0  0  0  0  0  0  0
    1.1908    0.6160   -0.0197 H   0  0  0  0  0  0  0  0  0  0  0  0
    2.9831   -1.9050    0.0660 H   0  0  0  0  0  0  0  0  0  0  0  0
    2.8442    1.8117    0.7215 H   0  0  0  0  0  0  0  0  0  0  0  0
    5.2937   -1.4789   -0.6680 H   0  0  0  0  0  0  0  0  0  0  0  0
    4.7917    3.2780    0.6563 H   0  0  0  0  0  0  0  0  0  0  0  0
    7.2464    0.0255   -0.7066 H   0  0  0  0  0  0  0  0  0  0  0  0
    7.0038    2.4049   -0.0481 H   0  0  0  0  0  0  0  0  0  0  0  0
  1  4  1  0  0  0  0
  1 13  1  0  0  0  0
  2 13  2  0  0  0  0
  3  4  1  0  0  0  0
  3  5  1  0  0  0  0
  3  6  1  0  0  0  0
  3 22  1  0  0  0  0
  4 10  1  0  0  0  0
  4 11  1  0  0  0  0
  5  7  1  0  0  0  0
  5 23  1  0  0  0  0
  5 24  1  0  0  0  0
  6  9  1  0  0  0  0
  6 25  1  0  0  0  0
  6 26  1  0  0  0  0
  7  8  1  0  0  0  0
  7 27  1  0  0  0  0
  7 28  1  0  0  0  0
  8  9  2  0  0  0  0
  8 12  1  0  0  0  0
  9 29  1  0  0  0  0
 10 30  1  0  0  0  0
 10 31  1  0  0  0  0
 10 32  1  0  0  0  0
 11 33  1  0  0  0  0
 11 34  1  0  0  0  0
 11 35  1  0  0  0  0
 12 36  1  0  0  0  0
 12 37  1  0  0  0  0
 12 38  1  0  0  0  0
 13 14  1  0  0  0  0
 14 15  2  0  0  0  0
 14 39  1  0  0  0  0
 15 16  1  0  0  0  0
 15 40  1  0  0  0  0
 16 17  2  0  0  0  0
 16 18  1  0  0  0  0
 17 19  1  0  0  0  0
 17 41  1  0  0  0  0
 18 20  2  0  0  0  0
 18 42  1  0  0  0  0
 19 21  2  0  0  0  0
 19 43  1  0  0  0  0
 20 21  1  0  0  0  0
 20 44  1  0  0  0  0
 21 45  1  0  0  0  0
M  END
> <PUBCHEM_COMPOUND_CID>
20838599

> <PUBCHEM_CONFORMER_RMSD>
0.8

> <PUBCHEM_CONFORMER_DIVERSEORDER>
1
12
6
41
55
32
19
11
15
39
46
63
22
37
59
49
36
23
24
44
54
52
21
45
50
47
10
16
57
29
62
25
42
31
3
53
58
13
30
14
48
28
56
35
38
26
40
61
7
20
5
8
27
34
9
60
17
51
33
43
18
2
4

> <PUBCHEM_MMFF94_PARTIAL_CHARGES>
25
1 -0.43
12 0.14
13 0.71
14 -0.14
15 -0.18
16 0.03
17 -0.15
18 -0.15
19 -0.15
2 -0.57
20 -0.15
21 -0.15
29 0.15
39 0.15
4 0.28
40 0.15
41 0.15
42 0.15
43 0.15
44 0.15
45 0.15
6 0.14
7 0.14
8 -0.28
9 -0.29

> <PUBCHEM_EFFECTIVE_ROTOR_COUNT>
5.8

> <PUBCHEM_PHARMACOPHORE_FEATURES>
4
1 2 acceptor
3 4 10 11 hydrophobe
6 16 17 18 19 20 21 rings
6 3 5 6 7 8 9 rings

> <PUBCHEM_HEAVY_ATOM_COUNT>
21

> <PUBCHEM_ATOM_DEF_STEREO_COUNT>
1

> <PUBCHEM_ATOM_UDEF_STEREO_COUNT>
0

> <PUBCHEM_BOND_DEF_STEREO_COUNT>
1

> <PUBCHEM_BOND_UDEF_STEREO_COUNT>
0

> <PUBCHEM_ISOTOPIC_ATOM_COUNT>
0

> <PUBCHEM_COMPONENT_COUNT>
1

> <PUBCHEM_CACTVS_TAUTO_COUNT>
1

> <PUBCHEM_CONFORMER_ID>
013DF8C700000001

> <PUBCHEM_MMFF94_ENERGY>
54.5092

> <PUBCHEM_FEATURE_SELFOVERLAP>
20.297

> <PUBCHEM_SHAPE_FINGERPRINT>
10014705 185 18411698807053326379
11089746 13 18342731923643452980
11370993 144 18334857208306651590
12107183 9 18263071120879886162
12390115 104 18410019844323926375
12403259 118 17604160289200310829
12596602 18 14057004914626123092
12788726 201 17702666531896138848
12892183 10 15719951290325100643
13073987 5 18261951964108556250
13103583 49 13479137852411356301
13941219 33 8430327869779313413
14123255 352 18410293601101714916
1420 369 8934997087930453672
14251764 38 18267304424860970620
14251764 75 18127136260670826233
14848178 96 18341889701731227592
14950920 106 14634881863375219541
15183329 4 18272654515824593838
15519825 34 16298970748237370121
15778101 99 18409169917535277046
16994733 274 17025401493808403407
17093844 174 18342454885573889106
17780758 139 12179838394884476095
17834072 32 18409727361256202916
17844677 252 18265903643210548170
17857418 61 8790886276637301424
17870717 6 13542460952164682541
18927931 339 8286211564558318930
19377110 9 12179854905097828222
19784866 240 10303803294531377491
19784866 34 18409445856420598947
20281389 69 18334858320613406416
20621476 66 18408889529312243692
20645477 56 18259985955085687143
21033648 29 18341042025721803856
21054139 6 12175628365389645196
21279426 13 18343591733299517524
21307412 95 12175319398523016693
21401589 2 18187366511096374953
22289505 5 18202285819150377164
23402655 69 18272369802426821702
23559900 14 18131356285303757686
25122255 55 9583525334387940616
270888 7 18338515232021512141
283562 15 18190454051443752139
2838139 119 18341608183599076525
2916195 48 18408605842543017289
3014063 24 10665242461954260465
314194 84 8141789587105711506
3472631 163 18342738498758556589
484985 159 8862951567773445561
5104073 3 17967529056252804786
5718773 13 9294703391343443353
57724786 102 18264768761809755995
59124914 9 18409446960427400976
59682541 35 18188223052772937929
59682541 52 16915947266361224316
5969126 39 18196086866924585927
6327066 14 18410570644310876221
633830 44 18336541707639617502
636775 72 18123184878200911480
7062679 13 9799691493445824148
7288768 16 18041001709287171835
77188 2 17327746605089414419
7808743 9 18408880741750796089
90127 26 18336552737125884434

> <PUBCHEM_SHAPE_MULTIPOLES>
420.43
15.43
2.97
1.1
14.4
0.09
-0.01
-13.66
0.86
-2.44
-0.07
-1.31
0.13
0.46

> <PUBCHEM_SHAPE_SELFOVERLAP>
876.553

> <PUBCHEM_SHAPE_VOLUME>
237

> <PUBCHEM_COORDINATE_TYPE>
2
5
10

$$$$
