20831806
  -OEChem-11232109043D

 24 23  0     0  0  0  0  0  0999 V2000
    2.6982   -0.3793   -0.0800 O   0  0  0  0  0  0  0  0  0  0  0  0
   -3.0193   -1.4432   -0.0796 O   0  0  0  0  0  0  0  0  0  0  0  0
   -2.4663    2.6438    0.6509 O   0  0  0  0  0  0  0  0  0  0  0  0
    1.2515    1.4112   -0.2552 O   0  0  0  0  0  0  0  0  0  0  0  0
   -1.3687   -2.9953    0.0381 O   0  0  0  0  0  0  0  0  0  0  0  0
   -2.0087    1.4676   -1.2360 O   0  0  0  0  0  0  0  0  0  0  0  0
   -0.8321   -0.6430    0.2058 C   0  0  0  0  0  0  0  0  0  0  0  0
   -1.3457    0.5708    0.9370 C   0  0  0  0  0  0  0  0  0  0  0  0
    0.4130   -0.8063   -0.2794 C   0  0  0  0  0  0  0  0  0  0  0  0
    3.8066    0.5137    0.0690 C   0  0  0  0  0  0  0  0  0  0  0  0
    1.4858    0.2112   -0.2327 C   0  0  0  0  0  0  0  0  0  0  0  0
   -1.7280   -1.8277    0.0525 C   0  0  0  0  0  0  0  0  0  0  0  0
   -1.9616    1.5734   -0.0181 C   0  0  0  0  0  0  0  0  0  0  0  0
    5.0752   -0.2969    0.2277 C   0  0  0  0  0  0  0  0  0  0  0  0
   -0.5423    1.0639    1.4942 H   0  0  0  0  0  0  0  0  0  0  0  0
   -2.1063    0.2729    1.6680 H   0  0  0  0  0  0  0  0  0  0  0  0
    0.7079   -1.7446   -0.7442 H   0  0  0  0  0  0  0  0  0  0  0  0
    3.8833    1.1518   -0.8185 H   0  0  0  0  0  0  0  0  0  0  0  0
    3.6541    1.1402    0.9550 H   0  0  0  0  0  0  0  0  0  0  0  0
    5.0063   -0.9534    1.1013 H   0  0  0  0  0  0  0  0  0  0  0  0
    5.2318   -0.9420   -0.6431 H   0  0  0  0  0  0  0  0  0  0  0  0
    5.9446    0.3562    0.3443 H   0  0  0  0  0  0  0  0  0  0  0  0
   -3.6220   -2.2100   -0.1840 H   0  0  0  0  0  0  0  0  0  0  0  0
   -2.8645    3.3010    0.0411 H   0  0  0  0  0  0  0  0  0  0  0  0
  1 10  1  0  0  0  0
  1 11  1  0  0  0  0
  2 12  1  0  0  0  0
  2 23  1  0  0  0  0
  3 13  1  0  0  0  0
  3 24  1  0  0  0  0
  4 11  2  0  0  0  0
  5 12  2  0  0  0  0
  6 13  2  0  0  0  0
  7  8  1  0  0  0  0
  7  9  2  0  0  0  0
  7 12  1  0  0  0  0
  8 13  1  0  0  0  0
  8 15  1  0  0  0  0
  8 16  1  0  0  0  0
  9 11  1  0  0  0  0
  9 17  1  0  0  0  0
 10 14  1  0  0  0  0
 10 18  1  0  0  0  0
 10 19  1  0  0  0  0
 14 20  1  0  0  0  0
 14 21  1  0  0  0  0
 14 22  1  0  0  0  0
M  END
> <PUBCHEM_COMPOUND_CID>
20831806

> <PUBCHEM_CONFORMER_RMSD>
0.6

> <PUBCHEM_CONFORMER_DIVERSEORDER>
1
43
75
55
73
66
76
70
80
101
127
108
19
36
44
141
56
134
26
88
131
136
118
140
122
46
48
72
32
143
21
107
33
125
79
2
121
61
42
82
53
49
65
102
57
85
8
15
93
12
4
31
71
64
40
13
62
110
124
115
23
117
37
94
25
22
106
9
92
35
67
20
113
27
63
6
126
84
111
83
105
90
45
98
145
51
58
99
116
39
120
138
142
38
109
3
18
139
17
132
87
74
52
97
81
123
78
5
119
68
30
10
24
103
47
86
41
54
104
60
128
144
91
129
89
137
11
59
114
16
112
135
77
146
7
28
95
100
14
96
133
69
29
130
50
34

> <PUBCHEM_MMFF94_PARTIAL_CHARGES>
16
1 -0.43
10 0.28
11 0.71
12 0.71
13 0.66
17 0.15
2 -0.65
23 0.5
24 0.5
3 -0.65
4 -0.57
5 -0.57
6 -0.57
7 -0.12
8 0.2
9 -0.14

> <PUBCHEM_EFFECTIVE_ROTOR_COUNT>
6

> <PUBCHEM_PHARMACOPHORE_FEATURES>
7
1 2 acceptor
1 3 acceptor
1 4 acceptor
1 5 acceptor
1 6 acceptor
3 2 5 12 anion
3 3 6 13 anion

> <PUBCHEM_HEAVY_ATOM_COUNT>
14

> <PUBCHEM_ATOM_DEF_STEREO_COUNT>
0

> <PUBCHEM_ATOM_UDEF_STEREO_COUNT>
0

> <PUBCHEM_BOND_DEF_STEREO_COUNT>
1

> <PUBCHEM_BOND_UDEF_STEREO_COUNT>
0

> <PUBCHEM_ISOTOPIC_ATOM_COUNT>
0

> <PUBCHEM_COMPONENT_COUNT>
1

> <PUBCHEM_CACTVS_TAUTO_COUNT>
1

> <PUBCHEM_CONFORMER_ID>
013DDE3E00000001

> <PUBCHEM_MMFF94_ENERGY>
22.1062

> <PUBCHEM_FEATURE_SELFOVERLAP>
35.641

> <PUBCHEM_SHAPE_FINGERPRINT>
1 1 17832994845203021679
11357001 24 18336271227098443051
12500047 106 18339919321307325000
13024252 1 15285356228201702031
13296909 8 18408601483124896740
13380535 76 18342175510044940774
14614273 12 18411705378574919943
16945 1 18339940306116801367
1741750 31 18269839722511923440
20510252 161 18272092694677431947
20524608 308 18412827971298863770
20645477 56 18411706443779615248
20711985 365 18337110180319075085
21339142 126 18271525398449683095
21501502 16 18263089962611165452
21524375 3 18188776015914720921
2306618 200 18202008732659331962
23402539 116 18342169003654946615
23419403 2 17415258792758613929
23557571 272 18201172009186024564
23559900 14 18341604975870449200
23598294 1 18335976510700460434
257057 1 17907575083797663199
2748010 2 18122362193502908703
305870 269 17905891379345214577
559249 180 18261947432986669602
6333449 129 18410853244099259852
6992083 37 18113904840419860556
81228 2 18336839687721641299

> <PUBCHEM_SHAPE_MULTIPOLES>
252.9
6.53
2.49
0.78
10.36
0.44
0.03
-0.32
-0.42
-3.13
-0.08
-0.28
-0.23
-0.1

> <PUBCHEM_SHAPE_SELFOVERLAP>
497.662

> <PUBCHEM_SHAPE_VOLUME>
149.8

> <PUBCHEM_COORDINATE_TYPE>
2
5
10

$$$$
