20859
  -OEChem-11232108423D

 19 18  0     0  0  0  0  0  0999 V2000
   -1.2769    0.5441   -0.2589 O   0  0  0  0  0  0  0  0  0  0  0  0
    0.1385   -1.3421   -0.2563 O   0  0  0  0  0  0  0  0  0  0  0  0
   -0.0536   -0.0097    0.2375 C   0  0  0  0  0  0  0  0  0  0  0  0
    1.1137    0.8482   -0.2650 C   0  0  0  0  0  0  0  0  0  0  0  0
    2.4669    0.3148    0.1818 C   0  0  0  0  0  0  0  0  0  0  0  0
   -1.5026    1.8743    0.1880 C   0  0  0  0  0  0  0  0  0  0  0  0
   -0.8859   -2.2295    0.1729 C   0  0  0  0  0  0  0  0  0  0  0  0
   -0.0716   -0.0345    1.3347 H   0  0  0  0  0  0  0  0  0  0  0  0
    1.0943    0.8916   -1.3611 H   0  0  0  0  0  0  0  0  0  0  0  0
    1.0331    1.8799    0.0916 H   0  0  0  0  0  0  0  0  0  0  0  0
    2.6612   -0.6807   -0.2290 H   0  0  0  0  0  0  0  0  0  0  0  0
    3.2661    0.9790   -0.1625 H   0  0  0  0  0  0  0  0  0  0  0  0
    2.5224    0.2549    1.2733 H   0  0  0  0  0  0  0  0  0  0  0  0
   -1.2576    1.9927    1.2481 H   0  0  0  0  0  0  0  0  0  0  0  0
   -2.5666    2.0935    0.0581 H   0  0  0  0  0  0  0  0  0  0  0  0
   -0.9472    2.5896   -0.4246 H   0  0  0  0  0  0  0  0  0  0  0  0
   -0.6388   -3.2337   -0.1820 H   0  0  0  0  0  0  0  0  0  0  0  0
   -1.8522   -1.9427   -0.2521 H   0  0  0  0  0  0  0  0  0  0  0  0
   -0.9442   -2.2513    1.2654 H   0  0  0  0  0  0  0  0  0  0  0  0
  1  3  1  0  0  0  0
  1  6  1  0  0  0  0
  2  3  1  0  0  0  0
  2  7  1  0  0  0  0
  3  4  1  0  0  0  0
  3  8  1  0  0  0  0
  4  5  1  0  0  0  0
  4  9  1  0  0  0  0
  4 10  1  0  0  0  0
  5 11  1  0  0  0  0
  5 12  1  0  0  0  0
  5 13  1  0  0  0  0
  6 14  1  0  0  0  0
  6 15  1  0  0  0  0
  6 16  1  0  0  0  0
  7 17  1  0  0  0  0
  7 18  1  0  0  0  0
  7 19  1  0  0  0  0
M  END
> <PUBCHEM_COMPOUND_CID>
20859

> <PUBCHEM_CONFORMER_RMSD>
0.4

> <PUBCHEM_CONFORMER_DIVERSEORDER>
6
10
3
8
2
7
11
4
9
5
1

> <PUBCHEM_MMFF94_PARTIAL_CHARGES>
5
1 -0.56
2 -0.56
3 0.56
6 0.28
7 0.28

> <PUBCHEM_EFFECTIVE_ROTOR_COUNT>
3

> <PUBCHEM_PHARMACOPHORE_FEATURES>
3
1 1 acceptor
1 2 acceptor
1 5 hydrophobe

> <PUBCHEM_HEAVY_ATOM_COUNT>
7

> <PUBCHEM_ATOM_DEF_STEREO_COUNT>
0

> <PUBCHEM_ATOM_UDEF_STEREO_COUNT>
0

> <PUBCHEM_BOND_DEF_STEREO_COUNT>
0

> <PUBCHEM_BOND_UDEF_STEREO_COUNT>
0

> <PUBCHEM_ISOTOPIC_ATOM_COUNT>
0

> <PUBCHEM_COMPONENT_COUNT>
1

> <PUBCHEM_CACTVS_TAUTO_COUNT>
1

> <PUBCHEM_CONFORMER_ID>
0000517B00000006

> <PUBCHEM_MMFF94_ENERGY>
15.2067

> <PUBCHEM_FEATURE_SELFOVERLAP>
15.262

> <PUBCHEM_SHAPE_FINGERPRINT>
16714656 1 18338520866474733385
18185500 45 17402337469326501254
20096714 4 18268148652032410276
21040471 1 18338519646957404332
23552449 1 18196087970060663632
23552449 11 17324077040569991409
29004967 10 17254555418467014642
5943 1 16761352551192989508

> <PUBCHEM_SHAPE_MULTIPOLES>
132.32
2.39
2.26
0.64
1.63
0.41
0.02
-0.52
0.13
-1.63
0.12
0.02
0.01
-0.03

> <PUBCHEM_SHAPE_SELFOVERLAP>
230.227

> <PUBCHEM_SHAPE_VOLUME>
88.4

> <PUBCHEM_COORDINATE_TYPE>
2
5
10

$$$$
