20970
  -OEChem-11232109453D

 11 11  0     0  0  0  0  0  0999 V2000
   -1.4817    0.4241    0.1423 S   0  0  0  0  0  0  0  0  0  0  0  0
    1.4834    0.4194   -0.1408 S   0  0  0  0  0  0  0  0  0  0  0  0
   -0.6966   -1.1460   -0.3024 C   0  0  0  0  0  0  0  0  0  0  0  0
    0.6926   -1.1487    0.3017 C   0  0  0  0  0  0  0  0  0  0  0  0
    0.0023    1.4512   -0.0008 C   0  0  0  0  0  0  0  0  0  0  0  0
   -0.6604   -1.2342   -1.3939 H   0  0  0  0  0  0  0  0  0  0  0  0
   -1.2922   -1.9802    0.0802 H   0  0  0  0  0  0  0  0  0  0  0  0
    0.6560   -1.2381    1.3931 H   0  0  0  0  0  0  0  0  0  0  0  0
    1.2854   -1.9844   -0.0820 H   0  0  0  0  0  0  0  0  0  0  0  0
   -0.0783    2.0900   -0.8844 H   0  0  0  0  0  0  0  0  0  0  0  0
    0.0848    2.0927    0.8807 H   0  0  0  0  0  0  0  0  0  0  0  0
  1  3  1  0  0  0  0
  1  5  1  0  0  0  0
  2  4  1  0  0  0  0
  2  5  1  0  0  0  0
  3  4  1  0  0  0  0
  3  6  1  0  0  0  0
  3  7  1  0  0  0  0
  4  8  1  0  0  0  0
  4  9  1  0  0  0  0
  5 10  1  0  0  0  0
  5 11  1  0  0  0  0
M  END
> <PUBCHEM_COMPOUND_CID>
20970

> <PUBCHEM_CONFORMER_RMSD>
0.4

> <PUBCHEM_CONFORMER_DIVERSEORDER>
2
1

> <PUBCHEM_MMFF94_PARTIAL_CHARGES>
5
1 -0.46
2 -0.46
3 0.23
4 0.23
5 0.46

> <PUBCHEM_EFFECTIVE_ROTOR_COUNT>
1

> <PUBCHEM_PHARMACOPHORE_FEATURES>
1
5 1 2 3 4 5 rings

> <PUBCHEM_HEAVY_ATOM_COUNT>
5

> <PUBCHEM_ATOM_DEF_STEREO_COUNT>
0

> <PUBCHEM_ATOM_UDEF_STEREO_COUNT>
0

> <PUBCHEM_BOND_DEF_STEREO_COUNT>
0

> <PUBCHEM_BOND_UDEF_STEREO_COUNT>
0

> <PUBCHEM_ISOTOPIC_ATOM_COUNT>
0

> <PUBCHEM_COMPONENT_COUNT>
1

> <PUBCHEM_CACTVS_TAUTO_COUNT>
1

> <PUBCHEM_CONFORMER_ID>
000051EA00000002

> <PUBCHEM_MMFF94_ENERGY>
3.7124

> <PUBCHEM_FEATURE_SELFOVERLAP>
5.074

> <PUBCHEM_SHAPE_FINGERPRINT>
139733 1 9223231853417325088
16714656 1 18339655472559911980
20096714 4 18410859866769895251
21015797 1 9367344846785920262
21040471 1 18411419505324792745
5943 1 14972127123367863607

> <PUBCHEM_SHAPE_MULTIPOLES>
110.6
1.8
1.61
0.69
0
0.01
0
-0.19
0
0
0
0
0.03
-0.13

> <PUBCHEM_SHAPE_SELFOVERLAP>
181.113

> <PUBCHEM_SHAPE_VOLUME>
75.6

> <PUBCHEM_COORDINATE_TYPE>
2
5
10

$$$$
