20981956
  -OEChem-11232108463D

 22 22  0     1  0  0  0  0  0999 V2000
   -0.8474    2.1276   -0.0345 O   0  0  0  0  0  0  0  0  0  0  0  0
    4.0338   -1.4147   -0.1410 O   0  0  0  0  0  0  0  0  0  0  0  0
   -1.0979    0.8153   -0.5536 C   0  0  1  0  0  0  0  0  0  0  0  0
   -0.0751    1.0543    0.5189 C   0  0  1  0  0  0  0  0  0  0  0  0
   -2.4496    0.2770   -0.1995 C   0  0  0  0  0  0  0  0  0  0  0  0
   -2.4415   -1.2465   -0.0870 C   0  0  0  0  0  0  0  0  0  0  0  0
    1.3282    0.8590    0.1920 C   0  0  0  0  0  0  0  0  0  0  0  0
   -3.8228   -1.7904    0.2380 C   0  0  0  0  0  0  0  0  0  0  0  0
    1.9708   -0.3161    0.2114 C   0  0  0  0  0  0  0  0  0  0  0  0
    3.4015   -0.3655   -0.1447 C   0  0  0  0  0  0  0  0  0  0  0  0
   -0.7917    0.6040   -1.5689 H   0  0  0  0  0  0  0  0  0  0  0  0
   -0.3299    0.7666    1.5340 H   0  0  0  0  0  0  0  0  0  0  0  0
   -3.1613    0.5876   -0.9737 H   0  0  0  0  0  0  0  0  0  0  0  0
   -2.8017    0.7104    0.7452 H   0  0  0  0  0  0  0  0  0  0  0  0
   -2.0899   -1.6869   -1.0277 H   0  0  0  0  0  0  0  0  0  0  0  0
   -1.7352   -1.5593    0.6912 H   0  0  0  0  0  0  0  0  0  0  0  0
    1.8773    1.7571   -0.0816 H   0  0  0  0  0  0  0  0  0  0  0  0
   -4.1859   -1.3945    1.1918 H   0  0  0  0  0  0  0  0  0  0  0  0
   -3.7924   -2.8819    0.3129 H   0  0  0  0  0  0  0  0  0  0  0  0
   -4.5431   -1.5234   -0.5419 H   0  0  0  0  0  0  0  0  0  0  0  0
    1.4752   -1.2419    0.4788 H   0  0  0  0  0  0  0  0  0  0  0  0
    3.8721    0.5948   -0.4139 H   0  0  0  0  0  0  0  0  0  0  0  0
  1  3  1  0  0  0  0
  1  4  1  0  0  0  0
  2 10  2  0  0  0  0
  3  4  1  0  0  0  0
  3  5  1  0  0  0  0
  3 11  1  0  0  0  0
  4  7  1  0  0  0  0
  4 12  1  0  0  0  0
  5  6  1  0  0  0  0
  5 13  1  0  0  0  0
  5 14  1  0  0  0  0
  6  8  1  0  0  0  0
  6 15  1  0  0  0  0
  6 16  1  0  0  0  0
  7  9  2  3  0  0  0
  7 17  1  0  0  0  0
  8 18  1  0  0  0  0
  8 19  1  0  0  0  0
  8 20  1  0  0  0  0
  9 10  1  0  0  0  0
  9 21  1  0  0  0  0
 10 22  1  0  0  0  0
M  END
> <PUBCHEM_COMPOUND_CID>
20981956

> <PUBCHEM_CONFORMER_RMSD>
0.6

> <PUBCHEM_CONFORMER_DIVERSEORDER>
1
3
64
61
11
50
42
69
43
34
66
68
39
54
49
56
5
35
33
62
40
63
55
57
65
12
31
52
44
2
53
67
60
27
51
47
48
36
14
17
7
32
30
37
13
10
26
22
9
15
45
21
25
59
23
38
58
20
18
29
19
6
16
24
46
41
4
8
28

> <PUBCHEM_MMFF94_PARTIAL_CHARGES>
13
1 -0.3
10 0.5
11 0.1
12 0.1
17 0.15
2 -0.57
21 0.15
22 0.06
3 -0.05
4 0.09
5 0.09
7 -0.19
9 -0.14

> <PUBCHEM_EFFECTIVE_ROTOR_COUNT>
4.6

> <PUBCHEM_PHARMACOPHORE_FEATURES>
3
1 1 acceptor
1 2 acceptor
1 8 hydrophobe

> <PUBCHEM_HEAVY_ATOM_COUNT>
10

> <PUBCHEM_ATOM_DEF_STEREO_COUNT>
0

> <PUBCHEM_ATOM_UDEF_STEREO_COUNT>
2

> <PUBCHEM_BOND_DEF_STEREO_COUNT>
0

> <PUBCHEM_BOND_UDEF_STEREO_COUNT>
1

> <PUBCHEM_ISOTOPIC_ATOM_COUNT>
0

> <PUBCHEM_COMPONENT_COUNT>
1

> <PUBCHEM_CACTVS_TAUTO_COUNT>
1

> <PUBCHEM_CONFORMER_ID>
014028C400000001

> <PUBCHEM_MMFF94_ENERGY>
5.3409

> <PUBCHEM_FEATURE_SELFOVERLAP>
15.223

> <PUBCHEM_SHAPE_FINGERPRINT>
11127187 94 18260541204410523823
12006461 19 18268430312083215355
12032990 46 18410293648589214667
12932764 1 17604706656227226624
14128692 85 18261395576131693108
14251710 61 18410015459041199202
14252887 29 18193836166014983843
14390081 3 8935009182695346761
18342897 69 18337103463090483546
19782 4 11239735041083137267
20201158 50 18341891861772762191
20281407 28 18413671313807397592
20645477 70 17974838777680599055
20653085 51 7925646534708311593
20711983 138 18273209798823691497
20871998 184 18130786733077650239
20871998 22 18338794645165669689
20871999 31 17967808353949699029
21061003 4 17060334106971192920
21499 59 8934733162601382939
22485316 2 18412542136793074195
328317 168 9439411198853301051
4416823 128 18410575127866199835
449060 23 18407760330616991770

> <PUBCHEM_SHAPE_MULTIPOLES>
194.06
6.66
1.89
0.68
1.9
0.14
0
-5.36
-0.14
-0.71
0.04
-0.06
0.04
0.32

> <PUBCHEM_SHAPE_SELFOVERLAP>
368.531

> <PUBCHEM_SHAPE_VOLUME>
120.5

> <PUBCHEM_COORDINATE_TYPE>
2
5
10

$$$$
