21085
  -OEChem-11232108593D

 30 29  0     1  0  0  0  0  0999 V2000
   -0.2273    0.7778    0.0556 C   0  0  0  0  0  0  0  0  0  0  0  0
   -1.6623    0.8164    0.5960 C   0  0  0  0  0  0  0  0  0  0  0  0
    0.5131   -0.5235    0.3876 C   0  0  0  0  0  0  0  0  0  0  0  0
   -2.6222   -0.2471    0.0299 C   0  0  0  0  0  0  0  0  0  0  0  0
    1.9323   -0.5785   -0.2128 C   0  0  2  0  0  0  0  0  0  0  0  0
   -2.6961   -0.1163   -1.4941 C   0  0  0  0  0  0  0  0  0  0  0  0
   -4.0266   -0.1436    0.6257 C   0  0  0  0  0  0  0  0  0  0  0  0
    2.5669   -1.9441    0.0638 C   0  0  0  0  0  0  0  0  0  0  0  0
    2.8185    0.5069    0.3465 C   0  0  0  0  0  0  0  0  0  0  0  0
    3.4038    1.4520   -0.3981 C   0  0  0  0  0  0  0  0  0  0  0  0
    0.3105    1.6231    0.5021 H   0  0  0  0  0  0  0  0  0  0  0  0
   -0.2192    0.9525   -1.0257 H   0  0  0  0  0  0  0  0  0  0  0  0
   -1.6279    0.7142    1.6883 H   0  0  0  0  0  0  0  0  0  0  0  0
   -2.0750    1.8143    0.3973 H   0  0  0  0  0  0  0  0  0  0  0  0
    0.5575   -0.6483    1.4774 H   0  0  0  0  0  0  0  0  0  0  0  0
   -0.0522   -1.3762   -0.0049 H   0  0  0  0  0  0  0  0  0  0  0  0
   -2.2441   -1.2463    0.2740 H   0  0  0  0  0  0  0  0  0  0  0  0
    1.8490   -0.4654   -1.3019 H   0  0  0  0  0  0  0  0  0  0  0  0
   -3.4465   -0.8017   -1.9037 H   0  0  0  0  0  0  0  0  0  0  0  0
   -1.7439   -0.3724   -1.9682 H   0  0  0  0  0  0  0  0  0  0  0  0
   -2.9717    0.8999   -1.7961 H   0  0  0  0  0  0  0  0  0  0  0  0
   -4.4831    0.8258    0.3984 H   0  0  0  0  0  0  0  0  0  0  0  0
   -4.6793   -0.9285    0.2293 H   0  0  0  0  0  0  0  0  0  0  0  0
   -3.9921   -0.2543    1.7146 H   0  0  0  0  0  0  0  0  0  0  0  0
    3.5687   -2.0082   -0.3758 H   0  0  0  0  0  0  0  0  0  0  0  0
    1.9621   -2.7473   -0.3710 H   0  0  0  0  0  0  0  0  0  0  0  0
    2.6577   -2.1359    1.1390 H   0  0  0  0  0  0  0  0  0  0  0  0
    2.9865    0.5157    1.4208 H   0  0  0  0  0  0  0  0  0  0  0  0
    4.0302    2.2064    0.0652 H   0  0  0  0  0  0  0  0  0  0  0  0
    3.2698    1.4912   -1.4734 H   0  0  0  0  0  0  0  0  0  0  0  0
  1  2  1  0  0  0  0
  1  3  1  0  0  0  0
  1 11  1  0  0  0  0
  1 12  1  0  0  0  0
  2  4  1  0  0  0  0
  2 13  1  0  0  0  0
  2 14  1  0  0  0  0
  3  5  1  0  0  0  0
  3 15  1  0  0  0  0
  3 16  1  0  0  0  0
  4  6  1  0  0  0  0
  4  7  1  0  0  0  0
  4 17  1  0  0  0  0
  5  8  1  0  0  0  0
  5  9  1  0  0  0  0
  5 18  1  0  0  0  0
  6 19  1  0  0  0  0
  6 20  1  0  0  0  0
  6 21  1  0  0  0  0
  7 22  1  0  0  0  0
  7 23  1  0  0  0  0
  7 24  1  0  0  0  0
  8 25  1  0  0  0  0
  8 26  1  0  0  0  0
  8 27  1  0  0  0  0
  9 10  2  0  0  0  0
  9 28  1  0  0  0  0
 10 29  1  0  0  0  0
 10 30  1  0  0  0  0
M  END
> <PUBCHEM_COMPOUND_CID>
21085

> <PUBCHEM_CONFORMER_RMSD>
0.6

> <PUBCHEM_CONFORMER_DIVERSEORDER>
1
21
12
25
23
5
6
19
3
8
15
18
7
10
9
11
4
14
22
13
24
17
16
20
2

> <PUBCHEM_MMFF94_PARTIAL_CHARGES>
6
10 -0.3
28 0.15
29 0.15
30 0.15
5 0.14
9 -0.29

> <PUBCHEM_EFFECTIVE_ROTOR_COUNT>
5

> <PUBCHEM_PHARMACOPHORE_FEATURES>
5
1 10 hydrophobe
1 8 hydrophobe
3 1 2 4 hydrophobe
3 3 5 9 hydrophobe
3 4 6 7 hydrophobe

> <PUBCHEM_HEAVY_ATOM_COUNT>
10

> <PUBCHEM_ATOM_DEF_STEREO_COUNT>
0

> <PUBCHEM_ATOM_UDEF_STEREO_COUNT>
1

> <PUBCHEM_BOND_DEF_STEREO_COUNT>
0

> <PUBCHEM_BOND_UDEF_STEREO_COUNT>
0

> <PUBCHEM_ISOTOPIC_ATOM_COUNT>
0

> <PUBCHEM_COMPONENT_COUNT>
1

> <PUBCHEM_CACTVS_TAUTO_COUNT>
1

> <PUBCHEM_CONFORMER_ID>
0000525D00000001

> <PUBCHEM_MMFF94_ENERGY>
7.8668

> <PUBCHEM_FEATURE_SELFOVERLAP>
26.052

> <PUBCHEM_SHAPE_FINGERPRINT>
11062470 55 17968096443017990993
124424 183 11239731767927303473
12932764 1 17632570548306358681
13296908 3 18113616751103582983
14325111 11 18410576162773794849
15310529 11 18342175540299518245
15775835 57 17917713517139505007
170605 34 18187083983741861272
17834072 33 18271804679304208213
18186145 218 17603866650538477617
18342897 55 18340203115281649276
19422 9 18202568345708214739
20279233 1 17530964683173406891
20645477 70 18339074891840009479
20671657 53 18118123572194263658
21499 59 18264770037963799068
22485316 2 18409729573802741779
23402539 116 14996274873232035827
23552423 10 18268429036118959410
23557571 272 17095240319713774845
25610 137 18410017654017212569
3248919 1 18410003317168198922
449060 62 18412552036993573296
528716 315 17988361584747379711
57812782 119 15357693110861793585
581208 293 18411133649750355186

> <PUBCHEM_SHAPE_MULTIPOLES>
205.8
6.95
1.43
0.96
2.14
0.35
-0.29
-0.32
-0.1
-1.69
0
0.71
-0.02
-0.26

> <PUBCHEM_SHAPE_SELFOVERLAP>
369.459

> <PUBCHEM_SHAPE_VOLUME>
134.9

> <PUBCHEM_COORDINATE_TYPE>
2
5
10

$$$$
