21149427
  -OEChem-11232109413D

 34 34  0     1  0  0  0  0  0999 V2000
   -2.8700    0.5098    0.1732 O   0  0  0  0  0  0  0  0  0  0  0  0
   -4.2311   -1.2172   -0.5352 O   0  0  0  0  0  0  0  0  0  0  0  0
    2.1309    0.6632   -0.0865 C   0  0  0  0  0  0  0  0  0  0  0  0
    0.7933   -0.0925   -0.3540 C   0  0  1  0  0  0  0  0  0  0  0  0
    0.9561   -1.4600    0.3237 C   0  0  0  0  0  0  0  0  0  0  0  0
    3.0877   -0.5091    0.0454 C   0  0  0  0  0  0  0  0  0  0  0  0
   -0.4855    0.6178    0.0722 C   0  0  0  0  0  0  0  0  0  0  0  0
    2.4340   -1.6569    0.2745 C   0  0  0  0  0  0  0  0  0  0  0  0
    2.1267    1.4849    1.2123 C   0  0  0  0  0  0  0  0  0  0  0  0
    2.4679    1.5786   -1.2715 C   0  0  0  0  0  0  0  0  0  0  0  0
    4.5679   -0.3571   -0.0222 C   0  0  0  0  0  0  0  0  0  0  0  0
   -1.7180   -0.2158   -0.2334 C   0  0  0  0  0  0  0  0  0  0  0  0
   -4.0705   -0.1114   -0.0367 C   0  0  0  0  0  0  0  0  0  0  0  0
   -5.1892    0.7656    0.4382 C   0  0  0  0  0  0  0  0  0  0  0  0
    0.7167   -0.2799   -1.4375 H   0  0  0  0  0  0  0  0  0  0  0  0
    0.6095   -1.4687    1.3625 H   0  0  0  0  0  0  0  0  0  0  0  0
    0.4376   -2.2446   -0.2362 H   0  0  0  0  0  0  0  0  0  0  0  0
   -0.5668    1.5881   -0.4330 H   0  0  0  0  0  0  0  0  0  0  0  0
   -0.4780    0.8393    1.1463 H   0  0  0  0  0  0  0  0  0  0  0  0
    2.9107   -2.6130    0.4384 H   0  0  0  0  0  0  0  0  0  0  0  0
    3.1170    1.9083    1.4170 H   0  0  0  0  0  0  0  0  0  0  0  0
    1.8466    0.8760    2.0795 H   0  0  0  0  0  0  0  0  0  0  0  0
    1.4265    2.3252    1.1508 H   0  0  0  0  0  0  0  0  0  0  0  0
    2.5649    1.0118   -2.2047 H   0  0  0  0  0  0  0  0  0  0  0  0
    3.4131    2.1095   -1.1102 H   0  0  0  0  0  0  0  0  0  0  0  0
    1.6870    2.3327   -1.4192 H   0  0  0  0  0  0  0  0  0  0  0  0
    4.8751   -0.0068   -1.0122 H   0  0  0  0  0  0  0  0  0  0  0  0
    5.0780   -1.3078    0.1656 H   0  0  0  0  0  0  0  0  0  0  0  0
    4.9181    0.3602    0.7259 H   0  0  0  0  0  0  0  0  0  0  0  0
   -1.6937   -1.1657    0.3114 H   0  0  0  0  0  0  0  0  0  0  0  0
   -1.7780   -0.4200   -1.3090 H   0  0  0  0  0  0  0  0  0  0  0  0
   -5.1855    1.7053   -0.1198 H   0  0  0  0  0  0  0  0  0  0  0  0
   -6.1442    0.2612    0.2651 H   0  0  0  0  0  0  0  0  0  0  0  0
   -5.0834    0.9532    1.5096 H   0  0  0  0  0  0  0  0  0  0  0  0
  1 12  1  0  0  0  0
  1 13  1  0  0  0  0
  2 13  2  0  0  0  0
  3  4  1  0  0  0  0
  3  6  1  0  0  0  0
  3  9  1  0  0  0  0
  3 10  1  0  0  0  0
  4  5  1  0  0  0  0
  4  7  1  0  0  0  0
  4 15  1  0  0  0  0
  5  8  1  0  0  0  0
  5 16  1  0  0  0  0
  5 17  1  0  0  0  0
  6  8  2  0  0  0  0
  6 11  1  0  0  0  0
  7 12  1  0  0  0  0
  7 18  1  0  0  0  0
  7 19  1  0  0  0  0
  8 20  1  0  0  0  0
  9 21  1  0  0  0  0
  9 22  1  0  0  0  0
  9 23  1  0  0  0  0
 10 24  1  0  0  0  0
 10 25  1  0  0  0  0
 10 26  1  0  0  0  0
 11 27  1  0  0  0  0
 11 28  1  0  0  0  0
 11 29  1  0  0  0  0
 12 30  1  0  0  0  0
 12 31  1  0  0  0  0
 13 14  1  0  0  0  0
 14 32  1  0  0  0  0
 14 33  1  0  0  0  0
 14 34  1  0  0  0  0
M  END
> <PUBCHEM_COMPOUND_CID>
21149427

> <PUBCHEM_CONFORMER_RMSD>
0.6

> <PUBCHEM_CONFORMER_DIVERSEORDER>
1
9
22
25
38
27
19
45
20
53
8
47
44
26
30
24
21
18
15
54
7
23
35
29
43
51
6
49
50
48
39
34
32
36
5
12
2
17
11
13
37
16
10
55
28
31
33
4
46
14
41
3
52
56
40
42

> <PUBCHEM_MMFF94_PARTIAL_CHARGES>
11
1 -0.43
11 0.14
12 0.28
13 0.66
14 0.06
2 -0.57
20 0.15
3 0.14
5 0.14
6 -0.28
8 -0.29

> <PUBCHEM_EFFECTIVE_ROTOR_COUNT>
4.6

> <PUBCHEM_PHARMACOPHORE_FEATURES>
3
1 2 acceptor
3 3 9 10 hydrophobe
5 3 4 5 6 8 rings

> <PUBCHEM_HEAVY_ATOM_COUNT>
14

> <PUBCHEM_ATOM_DEF_STEREO_COUNT>
1

> <PUBCHEM_ATOM_UDEF_STEREO_COUNT>
0

> <PUBCHEM_BOND_DEF_STEREO_COUNT>
0

> <PUBCHEM_BOND_UDEF_STEREO_COUNT>
0

> <PUBCHEM_ISOTOPIC_ATOM_COUNT>
0

> <PUBCHEM_COMPONENT_COUNT>
1

> <PUBCHEM_CACTVS_TAUTO_COUNT>
1

> <PUBCHEM_CONFORMER_ID>
0142B6F300000001

> <PUBCHEM_MMFF94_ENERGY>
27.9398

> <PUBCHEM_FEATURE_SELFOVERLAP>
15.223

> <PUBCHEM_SHAPE_FINGERPRINT>
11471102 20 18333169466405297734
11806522 49 18411417293849139010
14115302 16 18410863187101414046
14123238 8 9223227442891970585
14251717 144 18334857216469324575
14252887 29 17561087982007472494
14344429 50 17917710219179862016
15477762 27 18261394416901856334
16945 1 18188226325068394834
18186145 218 18114175333281109535
190213 19 15985109621795746841
19050596 39 18413388739746340003
200 152 18413669106558210771
20279233 1 17022911137840335171
20559304 39 18202565042756888960
20645477 70 18336544928627667223
212847 35 18341617009957472721
22485316 2 18412259524114247247
2255824 54 18260268546906940298
22854114 111 18413105095341841313
23402539 116 16845283934560904949
23402655 69 18409728426698158301
23557571 272 15554453937861918369
42 15 18413107247257405241
4990 188 17988935478187807094
5104073 3 18341048601290289203
522135 26 18334859402734018925
581208 293 18261107504142965095
633830 44 17530683212903067989
77779 3 18411139134734776467
9999458 23 17603308172036603110

> <PUBCHEM_SHAPE_MULTIPOLES>
276.37
9.4
1.55
0.89
11.92
0.07
0.01
0.13
0.17
-0.94
0.02
-0.39
-0.33
-0.49

> <PUBCHEM_SHAPE_SELFOVERLAP>
549.497

> <PUBCHEM_SHAPE_VOLUME>
167.6

> <PUBCHEM_COORDINATE_TYPE>
2
5
10

$$$$
