21159448
  -OEChem-11232108513D

 28 27  0     0  0  0  0  0  0999 V2000
   -2.6371    0.0337   -0.4518 O   0  0  0  0  0  0  0  0  0  0  0  0
   -1.5830    0.2263    1.5915 O   0  0  0  0  0  0  0  0  0  0  0  0
    0.7929    1.1526    0.3871 C   0  0  0  0  0  0  0  0  0  0  0  0
   -0.4168    0.7819   -0.4697 C   0  0  0  0  0  0  0  0  0  0  0  0
    1.9425    1.6087   -0.4626 C   0  0  0  0  0  0  0  0  0  0  0  0
   -1.5858    0.3220    0.3718 C   0  0  0  0  0  0  0  0  0  0  0  0
    3.1463    1.0168   -0.4684 C   0  0  0  0  0  0  0  0  0  0  0  0
    3.4935   -0.1756    0.3744 C   0  0  0  0  0  0  0  0  0  0  0  0
   -3.8266   -0.4182    0.2032 C   0  0  0  0  0  0  0  0  0  0  0  0
   -4.8894   -0.6929   -0.8393 C   0  0  0  0  0  0  0  0  0  0  0  0
    3.2062   -1.4617   -0.3422 C   0  0  0  0  0  0  0  0  0  0  0  0
    2.3573   -2.3936    0.1061 C   0  0  0  0  0  0  0  0  0  0  0  0
    0.5210    1.9789    1.0566 H   0  0  0  0  0  0  0  0  0  0  0  0
    1.0342    0.3122    1.0415 H   0  0  0  0  0  0  0  0  0  0  0  0
   -0.1527   -0.0322   -1.1551 H   0  0  0  0  0  0  0  0  0  0  0  0
   -0.7400    1.6499   -1.0566 H   0  0  0  0  0  0  0  0  0  0  0  0
    1.7817    2.4709   -1.1046 H   0  0  0  0  0  0  0  0  0  0  0  0
    3.9182    1.4086   -1.1261 H   0  0  0  0  0  0  0  0  0  0  0  0
    4.5713   -0.1363    0.5793 H   0  0  0  0  0  0  0  0  0  0  0  0
    3.0252   -0.1393    1.3633 H   0  0  0  0  0  0  0  0  0  0  0  0
   -4.1784    0.3548    0.8956 H   0  0  0  0  0  0  0  0  0  0  0  0
   -3.6100   -1.3357    0.7616 H   0  0  0  0  0  0  0  0  0  0  0  0
   -5.1040    0.2113   -1.4184 H   0  0  0  0  0  0  0  0  0  0  0  0
   -4.5450   -1.4512   -1.5502 H   0  0  0  0  0  0  0  0  0  0  0  0
   -5.8148   -1.0411   -0.3721 H   0  0  0  0  0  0  0  0  0  0  0  0
    3.7346   -1.6474   -1.2742 H   0  0  0  0  0  0  0  0  0  0  0  0
    2.1978   -3.3072   -0.4560 H   0  0  0  0  0  0  0  0  0  0  0  0
    1.8096   -2.2635    1.0329 H   0  0  0  0  0  0  0  0  0  0  0  0
  1  6  1  0  0  0  0
  1  9  1  0  0  0  0
  2  6  2  0  0  0  0
  3  4  1  0  0  0  0
  3  5  1  0  0  0  0
  3 13  1  0  0  0  0
  3 14  1  0  0  0  0
  4  6  1  0  0  0  0
  4 15  1  0  0  0  0
  4 16  1  0  0  0  0
  5  7  2  0  0  0  0
  5 17  1  0  0  0  0
  7  8  1  0  0  0  0
  7 18  1  0  0  0  0
  8 11  1  0  0  0  0
  8 19  1  0  0  0  0
  8 20  1  0  0  0  0
  9 10  1  0  0  0  0
  9 21  1  0  0  0  0
  9 22  1  0  0  0  0
 10 23  1  0  0  0  0
 10 24  1  0  0  0  0
 10 25  1  0  0  0  0
 11 12  2  0  0  0  0
 11 26  1  0  0  0  0
 12 27  1  0  0  0  0
 12 28  1  0  0  0  0
M  END
> <PUBCHEM_COMPOUND_CID>
21159448

> <PUBCHEM_CONFORMER_RMSD>
0.8

> <PUBCHEM_CONFORMER_DIVERSEORDER>
2
3
20
47
69
78
60
45
83
12
62
76
71
70
54
46
66
90
53
91
73
65
25
38
9
1
26
8
89
87
52
82
6
43
86
49
59
57
72
27
58
50
34
41
56
18
85
79
93
5
77
36
55
7
10
92
44
88
81
51
29
4
14
28
80
19
33
67
84
30
35
13
40
39
17
11
61
37
16
63
68
31
74
48
75
24
64
23
21
22
42
15
32

> <PUBCHEM_MMFF94_PARTIAL_CHARGES>
16
1 -0.43
11 -0.29
12 -0.3
17 0.15
18 0.15
2 -0.57
26 0.15
27 0.15
28 0.15
3 0.14
4 0.06
5 -0.29
6 0.66
7 -0.29
8 0.28
9 0.28

> <PUBCHEM_EFFECTIVE_ROTOR_COUNT>
7

> <PUBCHEM_PHARMACOPHORE_FEATURES>
2
1 12 hydrophobe
1 2 acceptor

> <PUBCHEM_HEAVY_ATOM_COUNT>
12

> <PUBCHEM_ATOM_DEF_STEREO_COUNT>
0

> <PUBCHEM_ATOM_UDEF_STEREO_COUNT>
0

> <PUBCHEM_BOND_DEF_STEREO_COUNT>
1

> <PUBCHEM_BOND_UDEF_STEREO_COUNT>
0

> <PUBCHEM_ISOTOPIC_ATOM_COUNT>
0

> <PUBCHEM_COMPONENT_COUNT>
1

> <PUBCHEM_CACTVS_TAUTO_COUNT>
1

> <PUBCHEM_CONFORMER_ID>
0142DE1800000002

> <PUBCHEM_MMFF94_ENERGY>
7.1548

> <PUBCHEM_FEATURE_SELFOVERLAP>
10.148

> <PUBCHEM_SHAPE_FINGERPRINT>
10857977 72 15123793976394122617
11987891 27 18131348631080705317
11987891 38 18410293644563246783
12616999 72 18260272983760819900
14251717 144 18409728460826099758
15477762 27 18408885135697434172
15757776 16 18334295323694984578
177051 138 17917714582428544606
17834074 16 18334859454485012851
18186145 218 17312817178503360269
20201158 50 18187089429744672338
20279233 1 17676211294610752544
20645477 70 18260829323321826414
22485316 2 18272085032825190109
22959321 94 16917063391128073141
23596394 208 17968361378307916055
33824 294 18408882966860320906
4990 188 17675919915581674065
53428517 54 18412263925944165815
573450 72 17489591143431872563
581208 293 18410012152348475720
59345605 21 18412256259712541551
59391676 29 18272370845370775158
8199 65 18409731751177327790
94968 8 18411141307946296758

> <PUBCHEM_SHAPE_MULTIPOLES>
235.22
8.49
1.85
0.94
8.14
0.86
0.19
2.96
-1.55
-2.22
-0.15
0.43
-0.06
-0.37

> <PUBCHEM_SHAPE_SELFOVERLAP>
437.009

> <PUBCHEM_SHAPE_VOLUME>
147

> <PUBCHEM_COORDINATE_TYPE>
2
5
10

$$$$
