21156163
  -OEChem-11232109063D

 34 34  0     1  0  0  0  0  0999 V2000
    1.7721    0.5576    0.4998 O   0  0  0  0  0  0  0  0  0  0  0  0
    3.1920   -0.9886   -0.4645 O   0  0  0  0  0  0  0  0  0  0  0  0
   -0.6101    0.7718    0.1116 C   0  0  2  0  0  0  0  0  0  0  0  0
    0.7107    0.1240   -0.3428 C   0  0  2  0  0  0  0  0  0  0  0  0
   -1.6923   -0.1579   -0.4718 C   0  0  1  0  0  0  0  0  0  0  0  0
    0.4210   -1.3596   -0.1028 C   0  0  0  0  0  0  0  0  0  0  0  0
   -1.0450   -1.5557   -0.4903 C   0  0  0  0  0  0  0  0  0  0  0  0
   -0.7824    2.2338   -0.2906 C   0  0  0  0  0  0  0  0  0  0  0  0
    1.1028    0.4003   -1.7957 C   0  0  0  0  0  0  0  0  0  0  0  0
   -2.9793   -0.1256    0.2886 C   0  0  0  0  0  0  0  0  0  0  0  0
   -2.8995   -0.4964    1.7398 C   0  0  0  0  0  0  0  0  0  0  0  0
   -4.1386    0.2147   -0.2936 C   0  0  0  0  0  0  0  0  0  0  0  0
    2.9652   -0.0882    0.3324 C   0  0  0  0  0  0  0  0  0  0  0  0
    3.9833    0.4701    1.2799 C   0  0  0  0  0  0  0  0  0  0  0  0
   -0.6168    0.7531    1.2092 H   0  0  0  0  0  0  0  0  0  0  0  0
   -1.8811    0.1297   -1.5158 H   0  0  0  0  0  0  0  0  0  0  0  0
    0.5562   -1.6124    0.9570 H   0  0  0  0  0  0  0  0  0  0  0  0
    1.0538   -2.0440   -0.6763 H   0  0  0  0  0  0  0  0  0  0  0  0
   -1.0988   -1.9535   -1.5123 H   0  0  0  0  0  0  0  0  0  0  0  0
   -1.5241   -2.3049    0.1463 H   0  0  0  0  0  0  0  0  0  0  0  0
   -0.8411    2.3550   -1.3769 H   0  0  0  0  0  0  0  0  0  0  0  0
   -1.7023    2.6450    0.1379 H   0  0  0  0  0  0  0  0  0  0  0  0
    0.0552    2.8372    0.0740 H   0  0  0  0  0  0  0  0  0  0  0  0
    1.5151    1.4104   -1.9023 H   0  0  0  0  0  0  0  0  0  0  0  0
    1.8556   -0.2881   -2.1887 H   0  0  0  0  0  0  0  0  0  0  0  0
    0.2445    0.3165   -2.4703 H   0  0  0  0  0  0  0  0  0  0  0  0
   -2.3655   -1.4342    1.9088 H   0  0  0  0  0  0  0  0  0  0  0  0
   -2.4128    0.2916    2.3220 H   0  0  0  0  0  0  0  0  0  0  0  0
   -3.9001   -0.6287    2.1683 H   0  0  0  0  0  0  0  0  0  0  0  0
   -5.0668    0.2359    0.2680 H   0  0  0  0  0  0  0  0  0  0  0  0
   -4.1882    0.4818   -1.3438 H   0  0  0  0  0  0  0  0  0  0  0  0
    4.1363    1.5326    1.0748 H   0  0  0  0  0  0  0  0  0  0  0  0
    4.9339   -0.0525    1.1402 H   0  0  0  0  0  0  0  0  0  0  0  0
    3.6514    0.3201    2.3102 H   0  0  0  0  0  0  0  0  0  0  0  0
  1  4  1  0  0  0  0
  1 13  1  0  0  0  0
  2 13  2  0  0  0  0
  3  4  1  0  0  0  0
  3  5  1  0  0  0  0
  3  8  1  0  0  0  0
  3 15  1  0  0  0  0
  4  6  1  0  0  0  0
  4  9  1  0  0  0  0
  5  7  1  0  0  0  0
  5 10  1  0  0  0  0
  5 16  1  0  0  0  0
  6  7  1  0  0  0  0
  6 17  1  0  0  0  0
  6 18  1  0  0  0  0
  7 19  1  0  0  0  0
  7 20  1  0  0  0  0
  8 21  1  0  0  0  0
  8 22  1  0  0  0  0
  8 23  1  0  0  0  0
  9 24  1  0  0  0  0
  9 25  1  0  0  0  0
  9 26  1  0  0  0  0
 10 11  1  0  0  0  0
 10 12  2  0  0  0  0
 11 27  1  0  0  0  0
 11 28  1  0  0  0  0
 11 29  1  0  0  0  0
 12 30  1  0  0  0  0
 12 31  1  0  0  0  0
 13 14  1  0  0  0  0
 14 32  1  0  0  0  0
 14 33  1  0  0  0  0
 14 34  1  0  0  0  0
M  END
> <PUBCHEM_COMPOUND_CID>
21156163

> <PUBCHEM_CONFORMER_RMSD>
0.6

> <PUBCHEM_CONFORMER_DIVERSEORDER>
3
65
74
30
88
100
42
75
87
62
85
15
39
73
99
20
64
96
61
35
32
40
89
97
10
34
52
21
9
77
86
22
31
95
90
54
23
66
63
93
55
25
36
91
41
48
82
56
79
69
78
103
76
27
38
51
101
94
70
46
43
45
71
92
13
81
8
83
18
84
57
59
37
58
44
16
67
102
24
19
68
17
60
80
28
98
29
26
72
33
50
11
5
47
6
12
7
53
14
49
4
2
1

> <PUBCHEM_MMFF94_PARTIAL_CHARGES>
11
1 -0.43
10 -0.28
11 0.14
12 -0.3
13 0.66
14 0.06
2 -0.57
30 0.15
31 0.15
4 0.28
5 0.14

> <PUBCHEM_EFFECTIVE_ROTOR_COUNT>
4

> <PUBCHEM_PHARMACOPHORE_FEATURES>
2
1 2 acceptor
5 3 4 5 6 7 rings

> <PUBCHEM_HEAVY_ATOM_COUNT>
14

> <PUBCHEM_ATOM_DEF_STEREO_COUNT>
0

> <PUBCHEM_ATOM_UDEF_STEREO_COUNT>
3

> <PUBCHEM_BOND_DEF_STEREO_COUNT>
0

> <PUBCHEM_BOND_UDEF_STEREO_COUNT>
0

> <PUBCHEM_ISOTOPIC_ATOM_COUNT>
0

> <PUBCHEM_COMPONENT_COUNT>
1

> <PUBCHEM_CACTVS_TAUTO_COUNT>
1

> <PUBCHEM_CONFORMER_ID>
0142D14300000003

> <PUBCHEM_MMFF94_ENERGY>
39.5132

> <PUBCHEM_FEATURE_SELFOVERLAP>
10.148

> <PUBCHEM_SHAPE_FINGERPRINT>
10130415 120 17967256407676375701
10219947 1 18411984667339163965
10465860 250 17894344493066742785
11031198 65 14620799296945064036
11132069 177 18273208720575792994
11401426 45 18341321245877379669
11769659 78 16226051149208121779
12032990 46 18408892836426297639
12119455 92 16988553602669264524
12162725 195 16200437961388190115
12251169 10 18059852913048672392
12382932 28 18340205292592814978
124424 183 17822005424273390201
12491281 212 16200165299837397083
13172582 1 18340497745795766119
13581323 91 18409730681281734006
13675066 3 18334858324723698867
13760787 19 16298395668457260947
14115302 16 17385449834244182541
14943859 89 13973961021545542192
15219456 202 17916864612896230012
15375462 478 17967247594134322660
15775835 57 18202279208188062163
16945 1 18410858758721158566
17844478 74 18410860932022134992
18186145 218 17417823819767410038
18511873 20 17167861976270237675
19026448 5 15647058165812467031
19422 9 14923948963490803027
19765921 60 17101465930660031620
200 152 14273729630260124920
20388701 513 18336826390334354173
20510252 161 18200869582810497224
20528008 55 18060131059298998074
21501502 16 13901366788866824059
22485316 2 15646767907738289010
23402539 116 17774708832034962413
265663 24 16056876922919944447
2748010 2 18123192298874620741
568465 68 18041856102546332027
69090 78 17846489344373288103
81228 2 18118418245489644637

> <PUBCHEM_SHAPE_MULTIPOLES>
276.37
6.21
1.46
1.29
0.93
0.4
0.1
-0.32
2.13
-0.25
-0.16
0.18
-0.03
0.34

> <PUBCHEM_SHAPE_SELFOVERLAP>
554.899

> <PUBCHEM_SHAPE_VOLUME>
165

> <PUBCHEM_COORDINATE_TYPE>
2
5
10

$$$$
