2116
  -OEChem-11232109033D

 81 82  0     1  0  0  0  0  0999 V2000
    3.1682    0.0819    0.4053 O   0  0  0  0  0  0  0  0  0  0  0  0
   -0.5012   -4.0320    0.7569 O   0  0  0  0  0  0  0  0  0  0  0  0
    3.6322    0.5351   -0.8804 C   0  0  2  0  0  0  0  0  0  0  0  0
    2.6373    1.5667   -1.4336 C   0  0  0  0  0  0  0  0  0  0  0  0
    3.8705   -0.6372   -1.8458 C   0  0  0  0  0  0  0  0  0  0  0  0
    2.0726    2.4549   -0.3233 C   0  0  0  0  0  0  0  0  0  0  0  0
    0.4372    4.3865    0.1828 C   0  0  2  0  0  0  0  0  0  0  0  0
    1.1073    3.5008   -0.8916 C   0  0  0  0  0  0  0  0  0  0  0  0
    2.6097   -1.4696   -2.0309 C   0  0  0  0  0  0  0  0  0  0  0  0
   -0.2421    3.5375    1.2786 C   0  0  0  0  0  0  0  0  0  0  0  0
    4.9710    1.2405   -0.6183 C   0  0  0  0  0  0  0  0  0  0  0  0
    1.9679   -1.7380   -0.7020 C   0  0  0  0  0  0  0  0  0  0  0  0
   -1.3931    2.6673    0.7617 C   0  0  0  0  0  0  0  0  0  0  0  0
    2.2729   -0.9550    0.4175 C   0  0  0  0  0  0  0  0  0  0  0  0
   -2.0775    1.8409    1.8597 C   0  0  0  0  0  0  0  0  0  0  0  0
   -3.2059    0.8870    1.4028 C   0  0  1  0  0  0  0  0  0  0  0  0
   -0.5537    5.3340   -0.5036 C   0  0  0  0  0  0  0  0  0  0  0  0
   -2.6444   -0.3569    0.6824 C   0  0  0  0  0  0  0  0  0  0  0  0
    1.0241   -2.7670   -0.5798 C   0  0  0  0  0  0  0  0  0  0  0  0
    1.6669   -1.2229    1.6484 C   0  0  0  0  0  0  0  0  0  0  0  0
   -3.6851   -1.3692    0.1862 C   0  0  0  0  0  0  0  0  0  0  0  0
    0.7382   -2.2563    1.7623 C   0  0  0  0  0  0  0  0  0  0  0  0
   -4.0474    0.5002    2.6260 C   0  0  0  0  0  0  0  0  0  0  0  0
    0.4139   -3.0258    0.6477 C   0  0  0  0  0  0  0  0  0  0  0  0
   -4.6692   -0.8452   -0.8670 C   0  0  0  0  0  0  0  0  0  0  0  0
   -4.0340   -0.2650   -2.1449 C   0  0  0  0  0  0  0  0  0  0  0  0
    0.6477   -3.6030   -1.7642 C   0  0  0  0  0  0  0  0  0  0  0  0
    2.0084   -0.3948    2.8482 C   0  0  0  0  0  0  0  0  0  0  0  0
    0.0841   -2.5415    3.0769 C   0  0  0  0  0  0  0  0  0  0  0  0
   -5.0772    0.2882   -3.1160 C   0  0  0  0  0  0  0  0  0  0  0  0
   -3.1992   -1.3422   -2.8421 C   0  0  0  0  0  0  0  0  0  0  0  0
    3.1057    2.1722   -2.2193 H   0  0  0  0  0  0  0  0  0  0  0  0
    1.7821    1.0697   -1.9039 H   0  0  0  0  0  0  0  0  0  0  0  0
    4.6518   -1.2899   -1.4316 H   0  0  0  0  0  0  0  0  0  0  0  0
    4.2305   -0.2826   -2.8190 H   0  0  0  0  0  0  0  0  0  0  0  0
    2.8713    2.9694    0.2203 H   0  0  0  0  0  0  0  0  0  0  0  0
    1.5358    1.8253    0.3889 H   0  0  0  0  0  0  0  0  0  0  0  0
    1.2132    4.9934    0.6666 H   0  0  0  0  0  0  0  0  0  0  0  0
    0.3420    2.9989   -1.4966 H   0  0  0  0  0  0  0  0  0  0  0  0
    1.6598    4.1498   -1.5840 H   0  0  0  0  0  0  0  0  0  0  0  0
    2.9004   -2.4057   -2.5216 H   0  0  0  0  0  0  0  0  0  0  0  0
    1.8979   -0.9590   -2.6885 H   0  0  0  0  0  0  0  0  0  0  0  0
   -0.6487    4.2248    2.0329 H   0  0  0  0  0  0  0  0  0  0  0  0
    0.4894    2.9266    1.8175 H   0  0  0  0  0  0  0  0  0  0  0  0
    5.3886    1.6725   -1.5338 H   0  0  0  0  0  0  0  0  0  0  0  0
    4.8783    2.0328    0.1315 H   0  0  0  0  0  0  0  0  0  0  0  0
    5.7033    0.5332   -0.2108 H   0  0  0  0  0  0  0  0  0  0  0  0
   -1.0172    1.9824   -0.0041 H   0  0  0  0  0  0  0  0  0  0  0  0
   -2.1581    3.2904    0.2863 H   0  0  0  0  0  0  0  0  0  0  0  0
   -1.3163    1.2619    2.3993 H   0  0  0  0  0  0  0  0  0  0  0  0
   -2.4870    2.5539    2.5878 H   0  0  0  0  0  0  0  0  0  0  0  0
   -3.8537    1.4404    0.7123 H   0  0  0  0  0  0  0  0  0  0  0  0
   -1.2833    4.7993   -1.1197 H   0  0  0  0  0  0  0  0  0  0  0  0
   -0.0190    6.0284   -1.1613 H   0  0  0  0  0  0  0  0  0  0  0  0
   -1.0974    5.9310    0.2359 H   0  0  0  0  0  0  0  0  0  0  0  0
   -2.0124   -0.0494   -0.1571 H   0  0  0  0  0  0  0  0  0  0  0  0
   -1.9779   -0.8836    1.3742 H   0  0  0  0  0  0  0  0  0  0  0  0
   -3.1524   -2.2390   -0.2170 H   0  0  0  0  0  0  0  0  0  0  0  0
   -4.2569   -1.7601    1.0357 H   0  0  0  0  0  0  0  0  0  0  0  0
   -4.3980    1.3914    3.1578 H   0  0  0  0  0  0  0  0  0  0  0  0
   -4.9381   -0.0650    2.3359 H   0  0  0  0  0  0  0  0  0  0  0  0
   -3.4677   -0.1076    3.3289 H   0  0  0  0  0  0  0  0  0  0  0  0
   -5.3459   -1.6654   -1.1406 H   0  0  0  0  0  0  0  0  0  0  0  0
   -5.3034   -0.0771   -0.4076 H   0  0  0  0  0  0  0  0  0  0  0  0
   -3.3729    0.5671   -1.8760 H   0  0  0  0  0  0  0  0  0  0  0  0
    1.4493   -4.3125   -1.9935 H   0  0  0  0  0  0  0  0  0  0  0  0
   -0.2710   -4.1772   -1.6085 H   0  0  0  0  0  0  0  0  0  0  0  0
    0.4584   -2.9758   -2.6420 H   0  0  0  0  0  0  0  0  0  0  0  0
    1.0999   -0.0128    3.3270 H   0  0  0  0  0  0  0  0  0  0  0  0
    2.6066    0.4904    2.6116 H   0  0  0  0  0  0  0  0  0  0  0  0
    2.5841   -0.9871    3.5672 H   0  0  0  0  0  0  0  0  0  0  0  0
   -0.9183   -2.1041    3.1080 H   0  0  0  0  0  0  0  0  0  0  0  0
    0.0081   -3.6206    3.2532 H   0  0  0  0  0  0  0  0  0  0  0  0
    0.6444   -2.1661    3.9371 H   0  0  0  0  0  0  0  0  0  0  0  0
   -5.7654   -0.4967   -3.4478 H   0  0  0  0  0  0  0  0  0  0  0  0
   -4.5986    0.7183   -4.0021 H   0  0  0  0  0  0  0  0  0  0  0  0
   -5.6683    1.0765   -2.6384 H   0  0  0  0  0  0  0  0  0  0  0  0
   -3.7967   -2.2346   -3.0576 H   0  0  0  0  0  0  0  0  0  0  0  0
   -2.3383   -1.6421   -2.2370 H   0  0  0  0  0  0  0  0  0  0  0  0
   -2.8028   -0.9676   -3.7924 H   0  0  0  0  0  0  0  0  0  0  0  0
   -1.0805   -3.8846    1.5212 H   0  0  0  0  0  0  0  0  0  0  0  0
  1  3  1  0  0  0  0
  1 14  1  0  0  0  0
  2 24  1  0  0  0  0
  2 81  1  0  0  0  0
  3  4  1  0  0  0  0
  3  5  1  0  0  0  0
  3 11  1  0  0  0  0
  4  6  1  0  0  0  0
  4 32  1  0  0  0  0
  4 33  1  0  0  0  0
  5  9  1  0  0  0  0
  5 34  1  0  0  0  0
  5 35  1  0  0  0  0
  6  8  1  0  0  0  0
  6 36  1  0  0  0  0
  6 37  1  0  0  0  0
  7  8  1  0  0  0  0
  7 10  1  0  0  0  0
  7 17  1  0  0  0  0
  7 38  1  0  0  0  0
  8 39  1  0  0  0  0
  8 40  1  0  0  0  0
  9 12  1  0  0  0  0
  9 41  1  0  0  0  0
  9 42  1  0  0  0  0
 10 13  1  0  0  0  0
 10 43  1  0  0  0  0
 10 44  1  0  0  0  0
 11 45  1  0  0  0  0
 11 46  1  0  0  0  0
 11 47  1  0  0  0  0
 12 14  2  0  0  0  0
 12 19  1  0  0  0  0
 13 15  1  0  0  0  0
 13 48  1  0  0  0  0
 13 49  1  0  0  0  0
 14 20  1  0  0  0  0
 15 16  1  0  0  0  0
 15 50  1  0  0  0  0
 15 51  1  0  0  0  0
 16 18  1  0  0  0  0
 16 23  1  0  0  0  0
 16 52  1  0  0  0  0
 17 53  1  0  0  0  0
 17 54  1  0  0  0  0
 17 55  1  0  0  0  0
 18 21  1  0  0  0  0
 18 56  1  0  0  0  0
 18 57  1  0  0  0  0
 19 24  2  0  0  0  0
 19 27  1  0  0  0  0
 20 22  2  0  0  0  0
 20 28  1  0  0  0  0
 21 25  1  0  0  0  0
 21 58  1  0  0  0  0
 21 59  1  0  0  0  0
 22 24  1  0  0  0  0
 22 29  1  0  0  0  0
 23 60  1  0  0  0  0
 23 61  1  0  0  0  0
 23 62  1  0  0  0  0
 25 26  1  0  0  0  0
 25 63  1  0  0  0  0
 25 64  1  0  0  0  0
 26 30  1  0  0  0  0
 26 31  1  0  0  0  0
 26 65  1  0  0  0  0
 27 66  1  0  0  0  0
 27 67  1  0  0  0  0
 27 68  1  0  0  0  0
 28 69  1  0  0  0  0
 28 70  1  0  0  0  0
 28 71  1  0  0  0  0
 29 72  1  0  0  0  0
 29 73  1  0  0  0  0
 29 74  1  0  0  0  0
 30 75  1  0  0  0  0
 30 76  1  0  0  0  0
 30 77  1  0  0  0  0
 31 78  1  0  0  0  0
 31 79  1  0  0  0  0
 31 80  1  0  0  0  0
M  END
> <PUBCHEM_COMPOUND_CID>
2116

> <PUBCHEM_CONFORMER_RMSD>
1.8

> <PUBCHEM_CONFORMER_DIVERSEORDER>
1
73
31
3
43
60
11
49
76
13
37
75
33
30
25
63
36
66
62
9
29
46
59
68
69
42
53
28
8
15
21
51
74
39
44
17
27
10
6
57
2
32
23
61
5
22
34
48
24
14
70
72
40
19
50
4
67
45
26
64
20
7
16
18
47
54
41
38
52
58
71
65
56
12
35
55

> <PUBCHEM_MMFF94_PARTIAL_CHARGES>
14
1 -0.36
12 -0.14
14 0.08
19 -0.14
2 -0.53
20 -0.14
22 -0.14
24 0.08
27 0.14
28 0.14
29 0.14
3 0.28
81 0.45
9 0.14

> <PUBCHEM_EFFECTIVE_ROTOR_COUNT>
12.8

> <PUBCHEM_PHARMACOPHORE_FEATURES>
7
1 1 acceptor
1 17 hydrophobe
1 2 donor
1 23 hydrophobe
3 26 30 31 hydrophobe
6 1 3 5 9 12 14 rings
6 12 14 19 20 22 24 rings

> <PUBCHEM_HEAVY_ATOM_COUNT>
31

> <PUBCHEM_ATOM_DEF_STEREO_COUNT>
0

> <PUBCHEM_ATOM_UDEF_STEREO_COUNT>
3

> <PUBCHEM_BOND_DEF_STEREO_COUNT>
0

> <PUBCHEM_BOND_UDEF_STEREO_COUNT>
0

> <PUBCHEM_ISOTOPIC_ATOM_COUNT>
0

> <PUBCHEM_COMPONENT_COUNT>
1

> <PUBCHEM_CACTVS_TAUTO_COUNT>
9

> <PUBCHEM_CONFORMER_ID>
0000084400000001

> <PUBCHEM_MMFF94_ENERGY>
75.4991

> <PUBCHEM_FEATURE_SELFOVERLAP>
35.55

> <PUBCHEM_SHAPE_FINGERPRINT>
12553582 1 18410019805875085873
12788726 201 17977933606322759349
13122387 1 17109616176359244424
14068700 675 17464499076214839562
14114206 34 18190199934817431981
14114207 22 17111216296468879777
14747281 78 17895739769560537245
161222 10 16698325530207715279
19026451 147 18341034303201884695
19319366 153 15659484567236117898
19930381 70 15965134046566490354
20600515 1 17695016289003738474
20764821 26 18118398445595048917
21857420 4 16625423558352550295
238 59 18191575548755050965
3493558 16 17195128932699751458
463206 1 18338532901379902625
66674814 147 18269271433750986373

> <PUBCHEM_SHAPE_MULTIPOLES>
626.23
8.03
5.87
3.19
5.32
5.49
-0.24
-0.25
4.88
-1.02
-0.19
2.49
-1.58
-1.27

> <PUBCHEM_SHAPE_SELFOVERLAP>
1257.069

> <PUBCHEM_SHAPE_VOLUME>
371.9

> <PUBCHEM_COORDINATE_TYPE>
2
5
10

$$$$
