21251947
  -OEChem-11232108523D

 19 18  0     0  0  0  0  0  0999 V2000
   -2.7993   -0.6185   -0.3830 S   0  0  0  0  0  0  0  0  0  0  0  0
   -3.3044    1.2718    0.2340 S   0  0  0  0  0  0  0  0  0  0  0  0
    1.2740   -0.3258    0.3100 C   0  0  0  0  0  0  0  0  0  0  0  0
   -0.0876   -0.1377   -0.3642 C   0  0  0  0  0  0  0  0  0  0  0  0
    2.3791    0.4029   -0.4543 C   0  0  0  0  0  0  0  0  0  0  0  0
   -1.1889   -0.8390    0.4262 C   0  0  0  0  0  0  0  0  0  0  0  0
    3.7270    0.2463    0.2313 C   0  0  0  0  0  0  0  0  0  0  0  0
    1.5110   -1.3949    0.3706 H   0  0  0  0  0  0  0  0  0  0  0  0
    1.2289    0.0541    1.3381 H   0  0  0  0  0  0  0  0  0  0  0  0
   -0.0415   -0.5378   -1.3850 H   0  0  0  0  0  0  0  0  0  0  0  0
   -0.2952    0.9361   -0.4438 H   0  0  0  0  0  0  0  0  0  0  0  0
    2.4458    0.0109   -1.4758 H   0  0  0  0  0  0  0  0  0  0  0  0
    2.1385    1.4697   -0.5312 H   0  0  0  0  0  0  0  0  0  0  0  0
   -1.2331   -0.4877    1.4627 H   0  0  0  0  0  0  0  0  0  0  0  0
   -0.9849   -1.9148    0.4605 H   0  0  0  0  0  0  0  0  0  0  0  0
    3.7026    0.6605    1.2443 H   0  0  0  0  0  0  0  0  0  0  0  0
    4.0130   -0.8083    0.2976 H   0  0  0  0  0  0  0  0  0  0  0  0
    4.5027    0.7738   -0.3327 H   0  0  0  0  0  0  0  0  0  0  0  0
   -2.6765    1.9821   -0.7144 H   0  0  0  0  0  0  0  0  0  0  0  0
  1  2  1  0  0  0  0
  1  6  1  0  0  0  0
  2 19  1  0  0  0  0
  3  4  1  0  0  0  0
  3  5  1  0  0  0  0
  3  8  1  0  0  0  0
  3  9  1  0  0  0  0
  4  6  1  0  0  0  0
  4 10  1  0  0  0  0
  4 11  1  0  0  0  0
  5  7  1  0  0  0  0
  5 12  1  0  0  0  0
  5 13  1  0  0  0  0
  6 14  1  0  0  0  0
  6 15  1  0  0  0  0
  7 16  1  0  0  0  0
  7 17  1  0  0  0  0
  7 18  1  0  0  0  0
M  END
> <PUBCHEM_COMPOUND_CID>
21251947

> <PUBCHEM_CONFORMER_RMSD>
0.6

> <PUBCHEM_CONFORMER_DIVERSEORDER>
1
47
41
44
3
46
14
48
4
45
2
32
43
28
5
42
40
15
21
7
36
37
39
26
24
6
10
16
35
38
33
9
17
31
34
13
22
30
25
19
27
8
23
18
12
29
11
20

> <PUBCHEM_MMFF94_PARTIAL_CHARGES>
4
1 -0.23
19 0.18
2 -0.18
6 0.23

> <PUBCHEM_EFFECTIVE_ROTOR_COUNT>
4

> <PUBCHEM_PHARMACOPHORE_FEATURES>
2
1 7 hydrophobe
4 3 4 5 6 hydrophobe

> <PUBCHEM_HEAVY_ATOM_COUNT>
7

> <PUBCHEM_ATOM_DEF_STEREO_COUNT>
0

> <PUBCHEM_ATOM_UDEF_STEREO_COUNT>
0

> <PUBCHEM_BOND_DEF_STEREO_COUNT>
0

> <PUBCHEM_BOND_UDEF_STEREO_COUNT>
0

> <PUBCHEM_ISOTOPIC_ATOM_COUNT>
0

> <PUBCHEM_COMPONENT_COUNT>
1

> <PUBCHEM_CACTVS_TAUTO_COUNT>
1

> <PUBCHEM_CONFORMER_ID>
0144476B00000001

> <PUBCHEM_MMFF94_ENERGY>
-8.2076

> <PUBCHEM_FEATURE_SELFOVERLAP>
10.149

> <PUBCHEM_SHAPE_FINGERPRINT>
10149128 111 18335146371100781093
11062470 55 17989488536826251026
12932741 1 16271633577096652315
12932764 1 17561357405095103207
14325111 11 18412263934549898558
14390081 3 18413669119226847785
20211469 26 11314314970740112033
20651381 32 16917355796601399142
21293036 1 15841547479156980837
3248919 1 18113901593166069582
42627469 27 18186523180918653489
5460574 1 9727363428095011462

> <PUBCHEM_SHAPE_MULTIPOLES>
151.76
6.7
1.1
0.76
2.11
0.19
-0.01
1.93
0.11
-1.02
0.06
-0.05
-0.02
-0.22

> <PUBCHEM_SHAPE_SELFOVERLAP>
241.483

> <PUBCHEM_SHAPE_VOLUME>
108.2

> <PUBCHEM_COORDINATE_TYPE>
2
5
10

$$$$
