212930
  -OEChem-11232108513D

 18 18  0     0  0  0  0  0  0999 V2000
    1.5494    1.0428    0.0126 O   0  0  0  0  0  0  0  0  0  0  0  0
   -3.0401   -1.2093    0.0037 O   0  0  0  0  0  0  0  0  0  0  0  0
    1.1424   -0.2215    0.0037 C   0  0  0  0  0  0  0  0  0  0  0  0
   -0.2977   -0.5315    0.0134 C   0  0  0  0  0  0  0  0  0  0  0  0
    2.1292   -1.1285   -0.0120 C   0  0  0  0  0  0  0  0  0  0  0  0
   -1.2713    0.3901    0.0056 C   0  0  0  0  0  0  0  0  0  0  0  0
    3.3121   -0.3516   -0.0135 C   0  0  0  0  0  0  0  0  0  0  0  0
    2.9059    0.9625    0.0019 C   0  0  0  0  0  0  0  0  0  0  0  0
   -2.7021   -0.0278    0.0058 C   0  0  0  0  0  0  0  0  0  0  0  0
   -3.7278    1.0747   -0.0213 C   0  0  0  0  0  0  0  0  0  0  0  0
   -0.5498   -1.5894    0.0228 H   0  0  0  0  0  0  0  0  0  0  0  0
    2.0532   -2.2065   -0.0212 H   0  0  0  0  0  0  0  0  0  0  0  0
   -1.0574    1.4531   -0.0079 H   0  0  0  0  0  0  0  0  0  0  0  0
    4.3331   -0.7049   -0.0243 H   0  0  0  0  0  0  0  0  0  0  0  0
    3.4301    1.9070    0.0070 H   0  0  0  0  0  0  0  0  0  0  0  0
   -4.1046    1.1929   -1.0402 H   0  0  0  0  0  0  0  0  0  0  0  0
   -4.5497    0.8165    0.6526 H   0  0  0  0  0  0  0  0  0  0  0  0
   -3.3012    2.0221    0.3194 H   0  0  0  0  0  0  0  0  0  0  0  0
  1  3  1  0  0  0  0
  1  8  1  0  0  0  0
  2  9  2  0  0  0  0
  3  4  1  0  0  0  0
  3  5  2  0  0  0  0
  4  6  2  3  0  0  0
  4 11  1  0  0  0  0
  5  7  1  0  0  0  0
  5 12  1  0  0  0  0
  6  9  1  0  0  0  0
  6 13  1  0  0  0  0
  7  8  2  0  0  0  0
  7 14  1  0  0  0  0
  8 15  1  0  0  0  0
  9 10  1  0  0  0  0
 10 16  1  0  0  0  0
 10 17  1  0  0  0  0
 10 18  1  0  0  0  0
M  END
> <PUBCHEM_COMPOUND_CID>
212930

> <PUBCHEM_CONFORMER_RMSD>
0.4

> <PUBCHEM_CONFORMER_DIVERSEORDER>
1
7
3
8
2
6
4
5

> <PUBCHEM_MMFF94_PARTIAL_CHARGES>
15
1 -0.28
10 0.06
11 0.15
12 0.15
13 0.15
14 0.15
15 0.15
2 -0.57
3 0.09
4 -0.11
5 -0.15
6 -0.14
7 -0.15
8 -0.01
9 0.49

> <PUBCHEM_EFFECTIVE_ROTOR_COUNT>
2

> <PUBCHEM_PHARMACOPHORE_FEATURES>
3
1 1 acceptor
1 2 acceptor
5 1 3 5 7 8 rings

> <PUBCHEM_HEAVY_ATOM_COUNT>
10

> <PUBCHEM_ATOM_DEF_STEREO_COUNT>
0

> <PUBCHEM_ATOM_UDEF_STEREO_COUNT>
0

> <PUBCHEM_BOND_DEF_STEREO_COUNT>
0

> <PUBCHEM_BOND_UDEF_STEREO_COUNT>
1

> <PUBCHEM_ISOTOPIC_ATOM_COUNT>
0

> <PUBCHEM_COMPONENT_COUNT>
1

> <PUBCHEM_CACTVS_TAUTO_COUNT>
2

> <PUBCHEM_CONFORMER_ID>
00033FC200000001

> <PUBCHEM_MMFF94_ENERGY>
15.391

> <PUBCHEM_FEATURE_SELFOVERLAP>
15.223

> <PUBCHEM_SHAPE_FINGERPRINT>
10608611 8 18410007753959469489
11062470 55 18412262818016546681
12932764 1 17458336416814995983
14144814 61 18411982446809456003
14325111 11 18410575101953776355
18186145 218 18333730191301863607
190213 19 17632578244745185179
20201158 50 18411700958863642187
20645477 70 18270962332379274719
20871998 22 17981605966764820670
23402655 69 18413106138987317405
3248919 1 17346605149043949687

> <PUBCHEM_SHAPE_MULTIPOLES>
194.06
6.59
1.21
0.6
2.85
0
0
0.75
0.04
0.04
0
-0.01
0
0.02

> <PUBCHEM_SHAPE_SELFOVERLAP>
399.024

> <PUBCHEM_SHAPE_VOLUME>
112.9

> <PUBCHEM_COORDINATE_TYPE>
2
5
10

$$$$
