21554596
  -OEChem-11232109253D

 21 22  0     1  0  0  0  0  0999 V2000
    2.5423   -0.3531    0.0441 O   0  0  0  0  0  0  0  0  0  0  0  0
   -0.7840    1.0654    0.2014 N   0  0  0  0  0  0  0  0  0  0  0  0
   -2.0234   -0.9852   -0.1743 N   0  0  0  0  0  0  0  0  0  0  0  0
    1.7217    0.7982    0.3781 C   0  0  2  0  0  0  0  0  0  0  0  0
    0.3246    0.3135    0.1685 C   0  0  0  0  0  0  0  0  0  0  0  0
    0.3460   -1.0471   -0.0131 C   0  0  0  0  0  0  0  0  0  0  0  0
    1.7281   -1.5531    0.0442 C   0  0  0  0  0  0  0  0  0  0  0  0
    2.1121    1.9569   -0.5196 C   0  0  0  0  0  0  0  0  0  0  0  0
   -0.8595   -1.6708   -0.1810 C   0  0  0  0  0  0  0  0  0  0  0  0
   -1.9151    0.3527    0.0185 C   0  0  0  0  0  0  0  0  0  0  0  0
   -3.1927    1.1226    0.0335 C   0  0  0  0  0  0  0  0  0  0  0  0
    1.8877    1.0385    1.4337 H   0  0  0  0  0  0  0  0  0  0  0  0
    1.9237   -2.1067    0.9669 H   0  0  0  0  0  0  0  0  0  0  0  0
    1.9959   -2.1523   -0.8298 H   0  0  0  0  0  0  0  0  0  0  0  0
    1.9954    1.6956   -1.5778 H   0  0  0  0  0  0  0  0  0  0  0  0
    1.5045    2.8442   -0.3160 H   0  0  0  0  0  0  0  0  0  0  0  0
    3.1667    2.2135   -0.3731 H   0  0  0  0  0  0  0  0  0  0  0  0
   -0.9419   -2.7412   -0.3245 H   0  0  0  0  0  0  0  0  0  0  0  0
   -3.6152    1.1168    1.0425 H   0  0  0  0  0  0  0  0  0  0  0  0
   -3.0268    2.1607   -0.2711 H   0  0  0  0  0  0  0  0  0  0  0  0
   -3.9194    0.6795   -0.6546 H   0  0  0  0  0  0  0  0  0  0  0  0
  1  4  1  0  0  0  0
  1  7  1  0  0  0  0
  2  5  2  0  0  0  0
  2 10  1  0  0  0  0
  3  9  1  0  0  0  0
  3 10  2  0  0  0  0
  4  5  1  0  0  0  0
  4  8  1  0  0  0  0
  4 12  1  0  0  0  0
  5  6  1  0  0  0  0
  6  7  1  0  0  0  0
  6  9  2  0  0  0  0
  7 13  1  0  0  0  0
  7 14  1  0  0  0  0
  8 15  1  0  0  0  0
  8 16  1  0  0  0  0
  8 17  1  0  0  0  0
  9 18  1  0  0  0  0
 10 11  1  0  0  0  0
 11 19  1  0  0  0  0
 11 20  1  0  0  0  0
 11 21  1  0  0  0  0
M  END
> <PUBCHEM_COMPOUND_CID>
21554596

> <PUBCHEM_CONFORMER_RMSD>
0.4

> <PUBCHEM_CONFORMER_DIVERSEORDER>
1
2

> <PUBCHEM_MMFF94_PARTIAL_CHARGES>
11
1 -0.56
10 0.48
11 0.14
18 0.15
2 -0.62
3 -0.62
4 0.42
5 0.17
6 -0.14
7 0.42
9 0.16

> <PUBCHEM_EFFECTIVE_ROTOR_COUNT>
0.6

> <PUBCHEM_PHARMACOPHORE_FEATURES>
5
1 1 acceptor
1 2 acceptor
3 2 3 10 cation
5 1 4 5 6 7 rings
6 2 3 5 6 9 10 rings

> <PUBCHEM_HEAVY_ATOM_COUNT>
11

> <PUBCHEM_ATOM_DEF_STEREO_COUNT>
0

> <PUBCHEM_ATOM_UDEF_STEREO_COUNT>
1

> <PUBCHEM_BOND_DEF_STEREO_COUNT>
0

> <PUBCHEM_BOND_UDEF_STEREO_COUNT>
0

> <PUBCHEM_ISOTOPIC_ATOM_COUNT>
0

> <PUBCHEM_COMPONENT_COUNT>
1

> <PUBCHEM_CACTVS_TAUTO_COUNT>
1

> <PUBCHEM_CONFORMER_ID>
0148E5A400000001

> <PUBCHEM_MMFF94_ENERGY>
29.9442

> <PUBCHEM_FEATURE_SELFOVERLAP>
25.469

> <PUBCHEM_SHAPE_FINGERPRINT>
12897270 3 18195245756938228572
13380535 21 18338532926890619651
14325111 11 18411699876890527761
15775835 57 18337117846751705196
16945 1 18337671910359469850
19973954 147 18410013268602142243
21040471 1 18341045319449789170
21501502 16 18410572932995447799
23402655 69 18198608961856640085
23552423 10 18408320016479800534
23559900 14 18129671911057970068
241688 4 17260195393273540434
2748010 2 18339644545899334303
5084963 1 18272647913726649947
528886 8 18411694357440678234

> <PUBCHEM_SHAPE_MULTIPOLES>
210.54
3.86
1.95
0.64
1.46
0.01
-0.01
-1.31
-0.09
-0.52
-0.2
-0.07
-0.06
-0.24

> <PUBCHEM_SHAPE_SELFOVERLAP>
448.868

> <PUBCHEM_SHAPE_VOLUME>
117.9

> <PUBCHEM_COORDINATE_TYPE>
2
5
10

$$$$
