21606
  -OEChem-11232108433D

 35 34  0     0  0  0  0  0  0999 V2000
   -2.9483    0.2698   -0.2677 O   0  0  0  0  0  0  0  0  0  0  0  0
   -1.5867    0.6609    1.5527 O   0  0  0  0  0  0  0  0  0  0  0  0
    1.0686    0.6389   -0.4191 C   0  0  0  0  0  0  0  0  0  0  0  0
    2.5498    0.8215   -0.0817 C   0  0  0  0  0  0  0  0  0  0  0  0
    0.2970    1.9526   -0.2596 C   0  0  0  0  0  0  0  0  0  0  0  0
    3.3158   -0.4965   -0.2083 C   0  0  0  0  0  0  0  0  0  0  0  0
   -1.1928    1.7952   -0.5631 C   0  0  0  0  0  0  0  0  0  0  0  0
    4.7885   -0.3215    0.1609 C   0  0  0  0  0  0  0  0  0  0  0  0
    5.5460   -1.6364    0.0688 C   0  0  0  0  0  0  0  0  0  0  0  0
   -1.8973    0.8496    0.3845 C   0  0  0  0  0  0  0  0  0  0  0  0
   -3.3125   -1.0368    0.1896 C   0  0  0  0  0  0  0  0  0  0  0  0
   -4.5107   -1.5300   -0.6072 C   0  0  0  0  0  0  0  0  0  0  0  0
   -2.1173   -1.9673    0.0505 C   0  0  0  0  0  0  0  0  0  0  0  0
    0.6484   -0.1313    0.2366 H   0  0  0  0  0  0  0  0  0  0  0  0
    0.9666    0.2761   -1.4491 H   0  0  0  0  0  0  0  0  0  0  0  0
    2.9908    1.5700   -0.7512 H   0  0  0  0  0  0  0  0  0  0  0  0
    2.6476    1.2047    0.9414 H   0  0  0  0  0  0  0  0  0  0  0  0
    0.7179    2.7072   -0.9350 H   0  0  0  0  0  0  0  0  0  0  0  0
    0.4250    2.3300    0.7624 H   0  0  0  0  0  0  0  0  0  0  0  0
    2.8611   -1.2490    0.4476 H   0  0  0  0  0  0  0  0  0  0  0  0
    3.2350   -0.8724   -1.2355 H   0  0  0  0  0  0  0  0  0  0  0  0
   -1.6929    2.7673   -0.4940 H   0  0  0  0  0  0  0  0  0  0  0  0
   -1.3075    1.4266   -1.5895 H   0  0  0  0  0  0  0  0  0  0  0  0
    4.8732    0.0697    1.1815 H   0  0  0  0  0  0  0  0  0  0  0  0
    5.2551    0.4116   -0.5074 H   0  0  0  0  0  0  0  0  0  0  0  0
    5.5073   -2.0409   -0.9476 H   0  0  0  0  0  0  0  0  0  0  0  0
    5.1243   -2.3809    0.7516 H   0  0  0  0  0  0  0  0  0  0  0  0
    6.5971   -1.4878    0.3356 H   0  0  0  0  0  0  0  0  0  0  0  0
   -3.6118   -0.9712    1.2431 H   0  0  0  0  0  0  0  0  0  0  0  0
   -4.2744   -1.5811   -1.6758 H   0  0  0  0  0  0  0  0  0  0  0  0
   -5.3496   -0.8333   -0.5041 H   0  0  0  0  0  0  0  0  0  0  0  0
   -4.8345   -2.5196   -0.2710 H   0  0  0  0  0  0  0  0  0  0  0  0
   -1.7039   -1.9257   -0.9635 H   0  0  0  0  0  0  0  0  0  0  0  0
   -1.3055   -1.7078    0.7359 H   0  0  0  0  0  0  0  0  0  0  0  0
   -2.4018   -3.0026    0.2659 H   0  0  0  0  0  0  0  0  0  0  0  0
  1 10  1  0  0  0  0
  1 11  1  0  0  0  0
  2 10  2  0  0  0  0
  3  4  1  0  0  0  0
  3  5  1  0  0  0  0
  3 14  1  0  0  0  0
  3 15  1  0  0  0  0
  4  6  1  0  0  0  0
  4 16  1  0  0  0  0
  4 17  1  0  0  0  0
  5  7  1  0  0  0  0
  5 18  1  0  0  0  0
  5 19  1  0  0  0  0
  6  8  1  0  0  0  0
  6 20  1  0  0  0  0
  6 21  1  0  0  0  0
  7 10  1  0  0  0  0
  7 22  1  0  0  0  0
  7 23  1  0  0  0  0
  8  9  1  0  0  0  0
  8 24  1  0  0  0  0
  8 25  1  0  0  0  0
  9 26  1  0  0  0  0
  9 27  1  0  0  0  0
  9 28  1  0  0  0  0
 11 12  1  0  0  0  0
 11 13  1  0  0  0  0
 11 29  1  0  0  0  0
 12 30  1  0  0  0  0
 12 31  1  0  0  0  0
 12 32  1  0  0  0  0
 13 33  1  0  0  0  0
 13 34  1  0  0  0  0
 13 35  1  0  0  0  0
M  END
> <PUBCHEM_COMPOUND_CID>
21606

> <PUBCHEM_CONFORMER_RMSD>
0.8

> <PUBCHEM_CONFORMER_DIVERSEORDER>
1
224
3
183
122
274
242
257
247
17
38
138
27
251
57
102
13
145
298
176
237
315
26
43
2
168
29
307
75
31
284
147
320
327
313
210
292
28
14
78
35
322
267
20
269
4
303
180
153
324
163
270
263
90
47
285
128
115
139
121
111
294
41
164
323
288
181
68
10
74
271
330
61
86
150
46
135
22
254
289
314
232
11
334
321
106
290
170
217
95
30
6
107
228
18
97
239
331
159
73
64
173
299
155
7
116
215
37
329
165
83
226
140
240
42
241
188
256
71
123
230
337
166
312
208
25
335
264
276
221
15
136
44
96
36
5
235
92
66
220
19
82
162
60
249
23
171
281
332
9
56
308
62
225
52
287
200
194
113
186
12
67
169
304
305
76
273
99
93
231
32
87
65
229
326
89
177
55
233
311
132
317
333
253
195
223
279
143
146
175
81
309
250
318
280
48
129
70
104
53
80
49
103
124
286
134
39
302
260
158
69
272
137
248
160
328
261
190
120
16
118
114
21
141
105
205
218
222
72
142
216
316
85
243
34
152
84
184
24
8
319
277
300
295
108
148
310
167
185
227
119
297
262
58
157
199
94
172
203
40
336
207
79
50
282
101
187
33
54
156
306
59
178
211
212
325
127
214
291
63
88
51
126
244
197
193
245
209
130
202
201
255
204
110
182
236
278
151
252
192
154
131
100
149
45
296
112
77
191
265
283
293
196
174
98
219
259
133
206
301
275
234
179
109
238
189
161
268
266
198
117
246
125
213
258
91
144

> <PUBCHEM_MMFF94_PARTIAL_CHARGES>
5
1 -0.43
10 0.66
11 0.28
2 -0.57
7 0.06

> <PUBCHEM_EFFECTIVE_ROTOR_COUNT>
8

> <PUBCHEM_PHARMACOPHORE_FEATURES>
5
1 2 acceptor
1 9 hydrophobe
3 11 12 13 hydrophobe
3 3 5 7 hydrophobe
3 4 6 8 hydrophobe

> <PUBCHEM_HEAVY_ATOM_COUNT>
13

> <PUBCHEM_ATOM_DEF_STEREO_COUNT>
0

> <PUBCHEM_ATOM_UDEF_STEREO_COUNT>
0

> <PUBCHEM_BOND_DEF_STEREO_COUNT>
0

> <PUBCHEM_BOND_UDEF_STEREO_COUNT>
0

> <PUBCHEM_ISOTOPIC_ATOM_COUNT>
0

> <PUBCHEM_COMPONENT_COUNT>
1

> <PUBCHEM_CACTVS_TAUTO_COUNT>
1

> <PUBCHEM_CONFORMER_ID>
0000546600000001

> <PUBCHEM_MMFF94_ENERGY>
6.9255

> <PUBCHEM_FEATURE_SELFOVERLAP>
25.386

> <PUBCHEM_SHAPE_FINGERPRINT>
100836 57 9727632830314220462
10753850 27 18335695074679466563
10968037 57 18411706460822210922
11046707 91 18410012122199328076
11458722 379 18259985959523371634
12346645 44 10375878463027270148
12555020 224 18336536214360751927
12757275 245 18335703806379186036
14123255 352 9943807772670025226
14123260 362 10087636035608587458
1420 369 18411984671771645110
14251752 14 17677040257795587253
15352361 1 18410011061205645782
17834072 8 18187072958903658613
18186145 218 14346086342768651324
18915474 69 18187370952129371684
20112054 13 11527952265706975372
20281475 54 18410580574175056956
20374829 77 18335134289083191485
20403669 9 18412267229069734030
20621476 51 17773304836880124454
20645477 70 18044650039118030517
20671657 53 18337393854504099517
22485316 2 18335138661903464544
23402539 116 18342171159517246663
23403322 49 18407758131609540998
23559900 14 18339913913485148088
24859131 72 18272934916426737934
27216 239 11383827182026398357
2871803 45 18187358839994802442
3086196 2 17988929963576750209
3286 77 17988923400956301864
7062679 117 18335426755783370750
76465 3 18410853287011866684

> <PUBCHEM_SHAPE_MULTIPOLES>
255.8
10.35
2.17
0.84
10.39
0.05
-0.18
7.9
0.39
-0.73
0.22
-0.38
-0.11
-0.36

> <PUBCHEM_SHAPE_SELFOVERLAP>
467.94

> <PUBCHEM_SHAPE_VOLUME>
163.6

> <PUBCHEM_COORDINATE_TYPE>
2
5
10

$$$$
