216442
  -OEChem-11232108413D

 35 36  0     0  0  0  0  0  0999 V2000
    3.2943   -2.3076    0.6981 O   0  0  0  0  0  0  0  0  0  0  0  0
    1.9049   -1.8789   -1.0864 O   0  0  0  0  0  0  0  0  0  0  0  0
    1.0505    0.7357   -0.9419 N   0  0  0  0  0  0  0  0  0  0  0  0
    3.1650   -0.1151   -0.0935 C   0  0  0  0  0  0  0  0  0  0  0  0
    2.3455    0.9553   -0.4421 C   0  0  0  0  0  0  0  0  0  0  0  0
    4.4471    0.1247    0.4008 C   0  0  0  0  0  0  0  0  0  0  0  0
    2.7996    2.2641   -0.2998 C   0  0  0  0  0  0  0  0  0  0  0  0
   -3.6682    0.1898    0.3065 C   0  0  0  0  0  0  0  0  0  0  0  0
    4.9054    1.4343    0.5447 C   0  0  0  0  0  0  0  0  0  0  0  0
    4.0817    2.5040    0.1944 C   0  0  0  0  0  0  0  0  0  0  0  0
   -2.2455    0.3968    0.5282 C   0  0  0  0  0  0  0  0  0  0  0  0
   -4.1126   -0.3777   -0.8878 C   0  0  0  0  0  0  0  0  0  0  0  0
   -4.5879    0.5583    1.2881 C   0  0  0  0  0  0  0  0  0  0  0  0
    2.7124   -1.4930   -0.2332 C   0  0  0  0  0  0  0  0  0  0  0  0
   -1.3031    0.4499   -0.4375 C   0  0  0  0  0  0  0  0  0  0  0  0
   -5.4767   -0.5767   -1.1003 C   0  0  0  0  0  0  0  0  0  0  0  0
   -5.9521    0.3591    1.0758 C   0  0  0  0  0  0  0  0  0  0  0  0
    0.1070    0.6765   -0.0580 C   0  0  0  0  0  0  0  0  0  0  0  0
   -6.3964   -0.2083   -0.1186 C   0  0  0  0  0  0  0  0  0  0  0  0
    2.9290   -3.6914    0.6623 C   0  0  0  0  0  0  0  0  0  0  0  0
    5.1196   -0.6857    0.6694 H   0  0  0  0  0  0  0  0  0  0  0  0
    2.1658    3.1044   -0.5708 H   0  0  0  0  0  0  0  0  0  0  0  0
    5.9050    1.6214    0.9263 H   0  0  0  0  0  0  0  0  0  0  0  0
    4.4391    3.5236    0.3055 H   0  0  0  0  0  0  0  0  0  0  0  0
   -1.9471    0.5292    1.5665 H   0  0  0  0  0  0  0  0  0  0  0  0
   -3.4317   -0.6967   -1.6716 H   0  0  0  0  0  0  0  0  0  0  0  0
   -4.2607    1.0031    2.2249 H   0  0  0  0  0  0  0  0  0  0  0  0
   -1.5142    0.3514   -1.4952 H   0  0  0  0  0  0  0  0  0  0  0  0
   -5.8231   -1.0225   -2.0282 H   0  0  0  0  0  0  0  0  0  0  0  0
   -6.6684    0.6460    1.8400 H   0  0  0  0  0  0  0  0  0  0  0  0
    0.3103    0.7908    1.0232 H   0  0  0  0  0  0  0  0  0  0  0  0
   -7.4585   -0.3642   -0.2835 H   0  0  0  0  0  0  0  0  0  0  0  0
    1.8545   -3.8022    0.8353 H   0  0  0  0  0  0  0  0  0  0  0  0
    3.4695   -4.2070    1.4604 H   0  0  0  0  0  0  0  0  0  0  0  0
    3.2135   -4.1315   -0.2979 H   0  0  0  0  0  0  0  0  0  0  0  0
  1 14  1  0  0  0  0
  1 20  1  0  0  0  0
  2 14  2  0  0  0  0
  3  5  1  0  0  0  0
  3 18  2  0  0  0  0
  4  5  1  0  0  0  0
  4  6  2  0  0  0  0
  4 14  1  0  0  0  0
  5  7  2  0  0  0  0
  6  9  1  0  0  0  0
  6 21  1  0  0  0  0
  7 10  1  0  0  0  0
  7 22  1  0  0  0  0
  8 11  1  0  0  0  0
  8 12  2  0  0  0  0
  8 13  1  0  0  0  0
  9 10  2  0  0  0  0
  9 23  1  0  0  0  0
 10 24  1  0  0  0  0
 11 15  2  3  0  0  0
 11 25  1  0  0  0  0
 12 16  1  0  0  0  0
 12 26  1  0  0  0  0
 13 17  2  0  0  0  0
 13 27  1  0  0  0  0
 15 18  1  0  0  0  0
 15 28  1  0  0  0  0
 16 19  2  0  0  0  0
 16 29  1  0  0  0  0
 17 19  1  0  0  0  0
 17 30  1  0  0  0  0
 18 31  1  0  0  0  0
 19 32  1  0  0  0  0
 20 33  1  0  0  0  0
 20 34  1  0  0  0  0
 20 35  1  0  0  0  0
M  END
> <PUBCHEM_COMPOUND_CID>
216442

> <PUBCHEM_CONFORMER_RMSD>
0.8

> <PUBCHEM_CONFORMER_DIVERSEORDER>
2
8
7
4
3
5
6
1

> <PUBCHEM_MMFF94_PARTIAL_CHARGES>
32
1 -0.43
10 -0.15
11 -0.18
12 -0.15
13 -0.15
14 0.63
15 -0.14
16 -0.15
17 -0.15
18 0.38
19 -0.15
2 -0.57
20 0.28
21 0.15
22 0.15
23 0.15
24 0.15
25 0.15
26 0.15
27 0.15
28 0.15
29 0.15
3 -0.63
30 0.15
31 0.06
32 0.15
4 0.09
5 0.18
6 -0.15
7 -0.15
8 0.03
9 -0.15

> <PUBCHEM_EFFECTIVE_ROTOR_COUNT>
5

> <PUBCHEM_PHARMACOPHORE_FEATURES>
4
1 2 acceptor
1 3 acceptor
6 4 5 6 7 9 10 rings
6 8 12 13 16 17 19 rings

> <PUBCHEM_HEAVY_ATOM_COUNT>
20

> <PUBCHEM_ATOM_DEF_STEREO_COUNT>
0

> <PUBCHEM_ATOM_UDEF_STEREO_COUNT>
0

> <PUBCHEM_BOND_DEF_STEREO_COUNT>
0

> <PUBCHEM_BOND_UDEF_STEREO_COUNT>
1

> <PUBCHEM_ISOTOPIC_ATOM_COUNT>
0

> <PUBCHEM_COMPONENT_COUNT>
1

> <PUBCHEM_CACTVS_TAUTO_COUNT>
1

> <PUBCHEM_CONFORMER_ID>
00034D7A00000002

> <PUBCHEM_MMFF94_ENERGY>
59.0082

> <PUBCHEM_FEATURE_SELFOVERLAP>
20.302

> <PUBCHEM_SHAPE_FINGERPRINT>
10090160 65 18411416258551296932
10366900 7 18335996328038656112
10595046 47 18343864446448206649
10912923 1 17988927769317544521
114674 6 18041000583848121514
12107183 9 17766004900368563113
12236239 1 17918275363676857917
12596602 18 17632578279368713465
12788726 201 17203058404453615641
13073987 5 18411987949448701817
13167823 11 18273779341789243439
13533116 47 18410014308327190987
13631057 29 17912639400470494471
13785724 45 17695639450067344047
13955234 65 18410290311663253378
14252887 29 18041000626554680960
14341114 328 17918276467341047541
14528608 73 18060139889894586213
146900 427 18131347548495973208
15142526 21 17840858887425754896
15250474 111 18130211740627502399
17844677 252 18337393743082914981
17857418 61 18273209799224436055
17859628 70 18337673006046161466
18681886 176 16271646805543566256
19377110 9 17917440843326257419
19427546 62 18191588764533145940
20157964 124 18409446999177116893
20511986 3 18059278933946289037
20645477 70 18260263027636458194
21054139 6 18127681836837372366
21065198 48 18202005395775931537
21197605 99 18192157207417910595
21285901 2 17458340814676885005
21315763 178 18273493485856369281
21623969 137 18260556653566227651
220451 1 18342465859093919901
22224240 67 18339635746397834704
23557571 272 16878215381675979125
23559900 14 17677066688676446246
23845131 108 18120930861771508210
239999 70 18202573877794728670
300161 21 18059856173398452245
33824 294 18407758140690027482
3421961 26 18263362499797700442
345986 75 18128250099638731481
34797466 226 15051459378836383425
4073 2 18262805184925722227
42630746 31 18411700993513277590
4340502 62 18340488957939335026
465052 167 17458336443254921088
542803 24 17561368404738495869
573450 72 17775567503709205563
5758199 1 18270961362428757168
59755656 215 18334014986604961284
621550 34 18260541243049873108
8272917 22 18341899593051271268
8988823 20 18409163307617551341
9999458 23 18336549404389499100

> <PUBCHEM_SHAPE_MULTIPOLES>
394.87
14.95
2.62
1.05
19.53
2.34
0.02
-1.43
1.97
-5.83
0.43
0.92
0.1
-0.85

> <PUBCHEM_SHAPE_SELFOVERLAP>
840.746

> <PUBCHEM_SHAPE_VOLUME>
219.4

> <PUBCHEM_COORDINATE_TYPE>
2
5
10

$$$$
