21723990
  -OEChem-11232109133D

 40 42  0     1  0  0  0  0  0999 V2000
    1.9079   -2.1123   -1.2885 O   0  0  0  0  0  0  0  0  0  0  0  0
   -0.8982   -0.4400    0.2934 C   0  0  1  0  0  0  0  0  0  0  0  0
   -0.6137    0.7625   -0.6575 C   0  0  2  0  0  0  0  0  0  0  0  0
    0.6367    1.4949   -0.0787 C   0  0  0  0  0  0  0  0  0  0  0  0
    1.1292    0.5310    1.0607 C   0  0  1  0  0  0  0  0  0  0  0  0
   -0.2072   -0.0173    1.5974 C   0  0  0  0  0  0  0  0  0  0  0  0
   -2.4415   -0.5131    0.4281 C   0  0  1  0  0  0  0  0  0  0  0  0
   -1.9455    1.5074   -0.7524 C   0  0  0  0  0  0  0  0  0  0  0  0
   -0.2147   -1.7131   -0.2475 C   0  0  0  0  0  0  0  0  0  0  0  0
   -2.9623    0.3745   -0.7083 C   0  0  0  0  0  0  0  0  0  0  0  0
    1.9868   -0.7009    0.6759 C   0  0  1  0  0  0  0  0  0  0  0  0
    1.2887   -1.5295   -0.3988 C   0  0  0  0  0  0  0  0  0  0  0  0
    1.6495    1.7608   -1.2007 C   0  0  0  0  0  0  0  0  0  0  0  0
    0.3151    2.8750    0.5409 C   0  0  0  0  0  0  0  0  0  0  0  0
   -3.0697   -1.8995    0.4023 C   0  0  0  0  0  0  0  0  0  0  0  0
    3.4389   -0.3805    0.3338 C   0  0  0  0  0  0  0  0  0  0  0  0
   -0.3939    0.3790   -1.6642 H   0  0  0  0  0  0  0  0  0  0  0  0
    1.6481    1.0868    1.8510 H   0  0  0  0  0  0  0  0  0  0  0  0
   -0.0839   -0.8506    2.2982 H   0  0  0  0  0  0  0  0  0  0  0  0
   -0.7652    0.7640    2.1253 H   0  0  0  0  0  0  0  0  0  0  0  0
   -2.7412   -0.0439    1.3754 H   0  0  0  0  0  0  0  0  0  0  0  0
   -2.0222    2.0959   -1.6715 H   0  0  0  0  0  0  0  0  0  0  0  0
   -2.1234    2.1736    0.0969 H   0  0  0  0  0  0  0  0  0  0  0  0
   -0.6225   -1.9785   -1.2297 H   0  0  0  0  0  0  0  0  0  0  0  0
   -0.3671   -2.5590    0.4318 H   0  0  0  0  0  0  0  0  0  0  0  0
   -3.9746    0.7417   -0.5129 H   0  0  0  0  0  0  0  0  0  0  0  0
   -2.9718   -0.1672   -1.6620 H   0  0  0  0  0  0  0  0  0  0  0  0
    2.0315   -1.3559    1.5584 H   0  0  0  0  0  0  0  0  0  0  0  0
    2.5858    2.1661   -0.8029 H   0  0  0  0  0  0  0  0  0  0  0  0
    1.8757    0.8607   -1.7790 H   0  0  0  0  0  0  0  0  0  0  0  0
    1.2528    2.4925   -1.9150 H   0  0  0  0  0  0  0  0  0  0  0  0
    1.2258    3.3412    0.9359 H   0  0  0  0  0  0  0  0  0  0  0  0
   -0.1031    3.5599   -0.2055 H   0  0  0  0  0  0  0  0  0  0  0  0
   -0.3936    2.8115    1.3718 H   0  0  0  0  0  0  0  0  0  0  0  0
   -2.8861   -2.4159   -0.5450 H   0  0  0  0  0  0  0  0  0  0  0  0
   -2.6802   -2.5183    1.2170 H   0  0  0  0  0  0  0  0  0  0  0  0
   -4.1553   -1.8272    0.5300 H   0  0  0  0  0  0  0  0  0  0  0  0
    3.5693    0.0022   -0.6802 H   0  0  0  0  0  0  0  0  0  0  0  0
    3.8616    0.3413    1.0398 H   0  0  0  0  0  0  0  0  0  0  0  0
    4.0444   -1.2927    0.3933 H   0  0  0  0  0  0  0  0  0  0  0  0
  1 12  2  0  0  0  0
  2  3  1  0  0  0  0
  2  6  1  0  0  0  0
  2  7  1  0  0  0  0
  2  9  1  0  0  0  0
  3  4  1  0  0  0  0
  3  8  1  0  0  0  0
  3 17  1  0  0  0  0
  4  5  1  0  0  0  0
  4 13  1  0  0  0  0
  4 14  1  0  0  0  0
  5  6  1  0  0  0  0
  5 11  1  0  0  0  0
  5 18  1  0  0  0  0
  6 19  1  0  0  0  0
  6 20  1  0  0  0  0
  7 10  1  0  0  0  0
  7 15  1  0  0  0  0
  7 21  1  0  0  0  0
  8 10  1  0  0  0  0
  8 22  1  0  0  0  0
  8 23  1  0  0  0  0
  9 12  1  0  0  0  0
  9 24  1  0  0  0  0
  9 25  1  0  0  0  0
 10 26  1  0  0  0  0
 10 27  1  0  0  0  0
 11 12  1  0  0  0  0
 11 16  1  0  0  0  0
 11 28  1  0  0  0  0
 13 29  1  0  0  0  0
 13 30  1  0  0  0  0
 13 31  1  0  0  0  0
 14 32  1  0  0  0  0
 14 33  1  0  0  0  0
 14 34  1  0  0  0  0
 15 35  1  0  0  0  0
 15 36  1  0  0  0  0
 15 37  1  0  0  0  0
 16 38  1  0  0  0  0
 16 39  1  0  0  0  0
 16 40  1  0  0  0  0
M  END
> <PUBCHEM_COMPOUND_CID>
21723990

> <PUBCHEM_CONFORMER_RMSD>
0.6

> <PUBCHEM_CONFORMER_DIVERSEORDER>
1

> <PUBCHEM_MMFF94_PARTIAL_CHARGES>
4
1 -0.57
11 0.06
12 0.45
9 0.06

> <PUBCHEM_EFFECTIVE_ROTOR_COUNT>
1.4

> <PUBCHEM_PHARMACOPHORE_FEATURES>
4
1 1 acceptor
3 4 13 14 hydrophobe
5 2 3 7 8 10 rings
8 2 3 4 5 6 9 11 12 rings

> <PUBCHEM_HEAVY_ATOM_COUNT>
16

> <PUBCHEM_ATOM_DEF_STEREO_COUNT>
5

> <PUBCHEM_ATOM_UDEF_STEREO_COUNT>
0

> <PUBCHEM_BOND_DEF_STEREO_COUNT>
0

> <PUBCHEM_BOND_UDEF_STEREO_COUNT>
0

> <PUBCHEM_ISOTOPIC_ATOM_COUNT>
0

> <PUBCHEM_COMPONENT_COUNT>
1

> <PUBCHEM_CACTVS_TAUTO_COUNT>
3

> <PUBCHEM_CONFORMER_ID>
014B7B5600000001

> <PUBCHEM_MMFF94_ENERGY>
68.8515

> <PUBCHEM_FEATURE_SELFOVERLAP>
20.349

> <PUBCHEM_SHAPE_FINGERPRINT>
10863032 1 18333728026812562692
12138202 97 18042952191127390231
12423570 1 18339355382926097115
12524768 44 18197489619610276127
14181834 199 18187091697376550612
144361 1 18115312296670428248
14648413 74 18337381729911616993
14817 1 10894601265738191528
15490181 7 17619065470215307120
15775835 57 17905053895008308404
16945 1 17406828488714950497
17990270 104 18408882957975019643
20511035 2 18117822516018304984
20588541 1 18266167349380067101
21501502 16 18261397801277946293
22721475 48 18408885122722822463
22802520 49 17838338475666335910
2334 1 18262516038899965773
23402539 116 18120069711911814102
23419403 2 17900785462168073364
23557571 272 18338238146363942182
23559900 14 18048583843057929986
2748010 2 18341327773626601127
353137 74 17902785263175579112
5084963 1 18338230574178214171
5255222 1 17977947113598876301
528886 8 18339348661317908121
568465 68 17988346139918753266
68250623 7 18040997409502629697
7364860 26 18196087961354730081
81228 2 17978795605804963640

> <PUBCHEM_SHAPE_MULTIPOLES>
323.4
4.03
2.52
1.2
0.91
0.7
-0.08
-1.37
0.19
-0.33
0.38
-0.25
0.04
0.45

> <PUBCHEM_SHAPE_SELFOVERLAP>
689.6

> <PUBCHEM_SHAPE_VOLUME>
185.2

> <PUBCHEM_COORDINATE_TYPE>
2
5
10

$$$$
