21870
  -OEChem-11232109173D

 25 26  0     0  0  0  0  0  0999 V2000
   -3.0040   -0.4268    1.0913 O   0  0  0  0  0  0  0  0  0  0  0  0
   -2.9754    0.6818   -0.9781 O   0  0  0  0  0  0  0  0  0  0  0  0
   -2.2985    0.5174    0.2738 C   0  0  0  0  0  0  0  0  0  0  0  0
   -3.9849   -0.9978    0.2250 C   0  0  0  0  0  0  0  0  0  0  0  0
   -4.2605    0.0998   -0.7657 C   0  0  0  0  0  0  0  0  0  0  0  0
   -0.9102    0.0413    0.0259 C   0  0  0  0  0  0  0  0  0  0  0  0
    0.1829    0.7223    0.4032 C   0  0  0  0  0  0  0  0  0  0  0  0
    1.5727    0.2945    0.1713 C   0  0  0  0  0  0  0  0  0  0  0  0
    1.8380   -1.0403   -0.0908 C   0  0  0  0  0  0  0  0  0  0  0  0
    2.5899    1.2346    0.2196 C   0  0  0  0  0  0  0  0  0  0  0  0
    3.1546   -1.4455   -0.3103 C   0  0  0  0  0  0  0  0  0  0  0  0
    3.9065    0.8295   -0.0001 C   0  0  0  0  0  0  0  0  0  0  0  0
    4.1888   -0.5106   -0.2651 C   0  0  0  0  0  0  0  0  0  0  0  0
   -2.3112    1.4808    0.7960 H   0  0  0  0  0  0  0  0  0  0  0  0
   -4.8682   -1.3060    0.7895 H   0  0  0  0  0  0  0  0  0  0  0  0
   -3.5406   -1.8743   -0.2592 H   0  0  0  0  0  0  0  0  0  0  0  0
   -4.6843   -0.2599   -1.7064 H   0  0  0  0  0  0  0  0  0  0  0  0
   -4.9161    0.8686   -0.3424 H   0  0  0  0  0  0  0  0  0  0  0  0
   -0.8325   -0.8998   -0.5107 H   0  0  0  0  0  0  0  0  0  0  0  0
    0.0617    1.6751    0.9140 H   0  0  0  0  0  0  0  0  0  0  0  0
    1.0688   -1.8057   -0.1136 H   0  0  0  0  0  0  0  0  0  0  0  0
    2.3859    2.2824    0.4235 H   0  0  0  0  0  0  0  0  0  0  0  0
    3.3759   -2.4897   -0.5115 H   0  0  0  0  0  0  0  0  0  0  0  0
    4.7119    1.5573    0.0351 H   0  0  0  0  0  0  0  0  0  0  0  0
    5.2141   -0.8263   -0.4348 H   0  0  0  0  0  0  0  0  0  0  0  0
  1  3  1  0  0  0  0
  1  4  1  0  0  0  0
  2  3  1  0  0  0  0
  2  5  1  0  0  0  0
  3  6  1  0  0  0  0
  3 14  1  0  0  0  0
  4  5  1  0  0  0  0
  4 15  1  0  0  0  0
  4 16  1  0  0  0  0
  5 17  1  0  0  0  0
  5 18  1  0  0  0  0
  6  7  2  3  0  0  0
  6 19  1  0  0  0  0
  7  8  1  0  0  0  0
  7 20  1  0  0  0  0
  8  9  2  0  0  0  0
  8 10  1  0  0  0  0
  9 11  1  0  0  0  0
  9 21  1  0  0  0  0
 10 12  2  0  0  0  0
 10 22  1  0  0  0  0
 11 13  2  0  0  0  0
 11 23  1  0  0  0  0
 12 13  1  0  0  0  0
 12 24  1  0  0  0  0
 13 25  1  0  0  0  0
M  END
> <PUBCHEM_COMPOUND_CID>
21870

> <PUBCHEM_CONFORMER_RMSD>
0.6

> <PUBCHEM_CONFORMER_DIVERSEORDER>
1
3
2

> <PUBCHEM_MMFF94_PARTIAL_CHARGES>
20
1 -0.56
10 -0.15
11 -0.15
12 -0.15
13 -0.15
19 0.15
2 -0.56
20 0.15
21 0.15
22 0.15
23 0.15
24 0.15
25 0.15
3 0.7
4 0.28
5 0.28
6 -0.29
7 -0.18
8 0.03
9 -0.15

> <PUBCHEM_EFFECTIVE_ROTOR_COUNT>
3

> <PUBCHEM_PHARMACOPHORE_FEATURES>
4
1 1 acceptor
1 2 acceptor
5 1 2 3 4 5 rings
6 8 9 10 11 12 13 rings

> <PUBCHEM_HEAVY_ATOM_COUNT>
13

> <PUBCHEM_ATOM_DEF_STEREO_COUNT>
0

> <PUBCHEM_ATOM_UDEF_STEREO_COUNT>
0

> <PUBCHEM_BOND_DEF_STEREO_COUNT>
0

> <PUBCHEM_BOND_UDEF_STEREO_COUNT>
1

> <PUBCHEM_ISOTOPIC_ATOM_COUNT>
0

> <PUBCHEM_COMPONENT_COUNT>
1

> <PUBCHEM_CACTVS_TAUTO_COUNT>
1

> <PUBCHEM_CONFORMER_ID>
0000556E00000001

> <PUBCHEM_MMFF94_ENERGY>
30.4911

> <PUBCHEM_FEATURE_SELFOVERLAP>
20.338

> <PUBCHEM_SHAPE_FINGERPRINT>
11471102 20 18413107269122657812
11615757 297 17989490735707146976
12032990 46 18411423899276686224
12932764 1 16988554702022766689
13296908 3 18335139782414967313
13705890 14 18335140886580245552
14144814 61 17917714586644390608
14251717 144 18343300353680037286
14252887 29 17418381268495511830
15242439 84 18186800257769692791
15375358 24 18186518821363369787
15375462 189 17489587861444011610
15477762 27 18341897372832617550
17834074 16 18409450310122447211
18186145 218 18114184103203369072
190213 19 18202845452423409088
19422 9 17846223232462628186
1986462 14 17749108881198728679
200 152 18059851770940688877
20201158 50 18408889520595474786
20279233 1 18113338613137178451
20645477 56 17604144840466879725
20645477 70 18341609274441811014
22485316 2 18411416215569709091
22646028 1 17489584562961719797
23402539 116 16877655773444360350
23402655 69 18413387622669922652
23557571 272 17749387040286919397
23559900 14 18040432170869768322
3268164 11 16805591586827000671
474 4 17058067047402878504
581208 293 18341891905186262418
69090 78 18411135870069521395
77779 3 18411139130054849709

> <PUBCHEM_SHAPE_MULTIPOLES>
255.8
9.29
1.25
0.81
3.44
0.17
-0.01
1.21
-1.04
-0.86
0
0.57
-0.01
0.42

> <PUBCHEM_SHAPE_SELFOVERLAP>
536.58

> <PUBCHEM_SHAPE_VOLUME>
145

> <PUBCHEM_COORDINATE_TYPE>
2
5
10

$$$$
