21918450
  -OEChem-11232109113D

 31 30  0     1  0  0  0  0  0999 V2000
   -3.1649    1.9830   -0.4693 O   0  0  0  0  0  0  0  0  0  0  0  0
   -0.2089   -0.9467    0.4992 C   0  0  1  0  0  0  0  0  0  0  0  0
    1.1470   -0.3452    0.9394 C   0  0  0  0  0  0  0  0  0  0  0  0
   -1.2119    0.1875    0.1877 C   0  0  0  0  0  0  0  0  0  0  0  0
   -0.1013   -1.9440   -0.6741 C   0  0  0  0  0  0  0  0  0  0  0  0
    1.8698    0.4844   -0.1271 C   0  0  0  0  0  0  0  0  0  0  0  0
   -2.6727   -0.2360    0.3302 C   0  0  0  0  0  0  0  0  0  0  0  0
    3.1702    1.0742    0.4232 C   0  0  0  0  0  0  0  0  0  0  0  0
    0.8740   -3.0869   -0.4262 C   0  0  0  0  0  0  0  0  0  0  0  0
    3.8773    1.9296   -0.6160 C   0  0  0  0  0  0  0  0  0  0  0  0
   -3.5785    0.9001   -0.0671 C   0  0  0  0  0  0  0  0  0  0  0  0
   -0.5902   -1.5009    1.3683 H   0  0  0  0  0  0  0  0  0  0  0  0
    1.8089   -1.1491    1.2833 H   0  0  0  0  0  0  0  0  0  0  0  0
    0.9749    0.2864    1.8214 H   0  0  0  0  0  0  0  0  0  0  0  0
   -1.0289    0.5709   -0.8245 H   0  0  0  0  0  0  0  0  0  0  0  0
   -1.0375    1.0286    0.8720 H   0  0  0  0  0  0  0  0  0  0  0  0
   -1.0883   -2.3804   -0.8661 H   0  0  0  0  0  0  0  0  0  0  0  0
    0.1880   -1.4213   -1.5933 H   0  0  0  0  0  0  0  0  0  0  0  0
    2.0972   -0.1391   -0.9987 H   0  0  0  0  0  0  0  0  0  0  0  0
    1.2251    1.3009   -0.4705 H   0  0  0  0  0  0  0  0  0  0  0  0
   -2.9088   -1.0860   -0.3162 H   0  0  0  0  0  0  0  0  0  0  0  0
   -2.8995   -0.5086    1.3657 H   0  0  0  0  0  0  0  0  0  0  0  0
    3.8393    0.2665    0.7419 H   0  0  0  0  0  0  0  0  0  0  0  0
    2.9573    1.6876    1.3064 H   0  0  0  0  0  0  0  0  0  0  0  0
    1.9084   -2.7334   -0.3882 H   0  0  0  0  0  0  0  0  0  0  0  0
    0.6456   -3.6021    0.5119 H   0  0  0  0  0  0  0  0  0  0  0  0
    0.8075   -3.8179   -1.2386 H   0  0  0  0  0  0  0  0  0  0  0  0
    3.2464    2.7671   -0.9302 H   0  0  0  0  0  0  0  0  0  0  0  0
    4.1321    1.3395   -1.5021 H   0  0  0  0  0  0  0  0  0  0  0  0
    4.8043    2.3392   -0.2025 H   0  0  0  0  0  0  0  0  0  0  0  0
   -4.6598    0.7001    0.0204 H   0  0  0  0  0  0  0  0  0  0  0  0
  1 11  2  0  0  0  0
  2  3  1  0  0  0  0
  2  4  1  0  0  0  0
  2  5  1  0  0  0  0
  2 12  1  0  0  0  0
  3  6  1  0  0  0  0
  3 13  1  0  0  0  0
  3 14  1  0  0  0  0
  4  7  1  0  0  0  0
  4 15  1  0  0  0  0
  4 16  1  0  0  0  0
  5  9  1  0  0  0  0
  5 17  1  0  0  0  0
  5 18  1  0  0  0  0
  6  8  1  0  0  0  0
  6 19  1  0  0  0  0
  6 20  1  0  0  0  0
  7 11  1  0  0  0  0
  7 21  1  0  0  0  0
  7 22  1  0  0  0  0
  8 10  1  0  0  0  0
  8 23  1  0  0  0  0
  8 24  1  0  0  0  0
  9 25  1  0  0  0  0
  9 26  1  0  0  0  0
  9 27  1  0  0  0  0
 10 28  1  0  0  0  0
 10 29  1  0  0  0  0
 10 30  1  0  0  0  0
 11 31  1  0  0  0  0
M  END
> <PUBCHEM_COMPOUND_CID>
21918450

> <PUBCHEM_CONFORMER_RMSD>
0.8

> <PUBCHEM_CONFORMER_DIVERSEORDER>
2
98
28
14
102
113
135
39
133
96
85
90
57
66
74
116
34
112
56
46
109
71
48
31
62
81
10
120
101
73
86
25
123
87
119
108
99
30
130
77
67
121
80
94
78
114
134
70
64
59
129
15
95
76
38
97
105
125
65
37
50
5
7
68
111
115
100
131
63
91
83
3
126
132
45
33
49
51
43
40
69
92
79
20
53
60
106
117
16
103
27
89
44
122
47
1
127
104
54
9
18
118
84
19
12
26
128
82
58
23
17
110
29
75
124
52
22
11
61
107
8
13
72
35
4
55
6
41
32
88
21
93
24
36
42

> <PUBCHEM_MMFF94_PARTIAL_CHARGES>
4
1 -0.57
11 0.45
31 0.06
7 0.06

> <PUBCHEM_EFFECTIVE_ROTOR_COUNT>
7

> <PUBCHEM_PHARMACOPHORE_FEATURES>
7
1 1 acceptor
1 10 hydrophobe
1 9 hydrophobe
3 2 3 5 hydrophobe
3 3 6 8 hydrophobe
4 2 4 5 7 hydrophobe
5 2 3 5 6 8 hydrophobe

> <PUBCHEM_HEAVY_ATOM_COUNT>
11

> <PUBCHEM_ATOM_DEF_STEREO_COUNT>
0

> <PUBCHEM_ATOM_UDEF_STEREO_COUNT>
1

> <PUBCHEM_BOND_DEF_STEREO_COUNT>
0

> <PUBCHEM_BOND_UDEF_STEREO_COUNT>
0

> <PUBCHEM_ISOTOPIC_ATOM_COUNT>
0

> <PUBCHEM_COMPONENT_COUNT>
1

> <PUBCHEM_CACTVS_TAUTO_COUNT>
2

> <PUBCHEM_CONFORMER_ID>
014E72F200000002

> <PUBCHEM_MMFF94_ENERGY>
6.1117

> <PUBCHEM_FEATURE_SELFOVERLAP>
42.406

> <PUBCHEM_SHAPE_FINGERPRINT>
1 1 18341048519337925550
10149128 76 18408885113979894113
10726558 24 18342746221146508670
12138202 78 18122626050375889687
12138202 97 17987807456846818430
122479 349 18114747156568633104
12500047 106 18199467847946659096
12932764 1 17059475358768227313
14123255 52 18338514244031139648
14415576 193 18337671914707334077
14648413 74 18121501250307716027
15775835 57 18334294300944323832
170605 34 18261109634631341009
1741750 31 18341330110515974384
18186145 218 18059307516769034016
20645476 183 18336829822398040010
20645477 56 18055078911334705448
20671657 53 17552081697317476279
20711985 344 17765981080385279090
21499 59 18411694400638329501
21524375 3 18335695070141412546
23532345 88 18054773002135911295
23598291 2 18042950147171434682
298252 57 18337952393525724786
305870 269 18409728452309907766
7364860 26 18196933270974109483
81228 2 17479441791434150203
81539 233 18408601435637702223
88987 49 18055619871150205136

> <PUBCHEM_SHAPE_MULTIPOLES>
220.51
6.14
2.76
0.85
0.52
2
-0.05
-6.19
0.72
0.5
0.85
0.21
0.06
0.02

> <PUBCHEM_SHAPE_SELFOVERLAP>
396.247

> <PUBCHEM_SHAPE_VOLUME>
142.2

> <PUBCHEM_COORDINATE_TYPE>
2
5
10

$$$$
