21932486
  -OEChem-11232109173D

 43 43  0     0  0  0  0  0  0999 V2000
    0.8976   -0.8451    0.4827 O   0  0  0  0  0  0  0  0  0  0  0  0
    1.2411    1.2238    1.4318 O   0  0  0  0  0  0  0  0  0  0  0  0
    3.1200    2.6021   -0.0495 N   0  0  0  0  0  0  0  0  0  0  0  0
   -3.0256   -1.1995   -0.7357 C   0  0  0  0  0  0  0  0  0  0  0  0
   -4.1165   -0.6816    0.2107 C   0  0  0  0  0  0  0  0  0  0  0  0
   -2.1967   -2.3252   -0.1533 C   0  0  0  0  0  0  0  0  0  0  0  0
   -4.9142    0.4439   -0.3877 C   0  0  0  0  0  0  0  0  0  0  0  0
   -1.0720   -2.1586    0.5697 C   0  0  0  0  0  0  0  0  0  0  0  0
   -2.6942   -3.7139   -0.4638 C   0  0  0  0  0  0  0  0  0  0  0  0
   -4.7326    1.7683   -0.2277 C   0  0  0  0  0  0  0  0  0  0  0  0
   -0.4299   -0.8749    0.9897 C   0  0  0  0  0  0  0  0  0  0  0  0
   -5.6495    2.7491   -0.9091 C   0  0  0  0  0  0  0  0  0  0  0  0
   -3.6450    2.4039    0.5906 C   0  0  0  0  0  0  0  0  0  0  0  0
    2.9877    0.1752    0.1928 C   0  0  0  0  0  0  0  0  0  0  0  0
    1.6263    0.2667    0.7785 C   0  0  0  0  0  0  0  0  0  0  0  0
    3.6874    1.3168   -0.1985 C   0  0  0  0  0  0  0  0  0  0  0  0
    3.5655   -1.0847    0.0368 C   0  0  0  0  0  0  0  0  0  0  0  0
    4.9650    1.1982   -0.7456 C   0  0  0  0  0  0  0  0  0  0  0  0
    4.8432   -1.2031   -0.5105 C   0  0  0  0  0  0  0  0  0  0  0  0
    5.5428   -0.0617   -0.9017 C   0  0  0  0  0  0  0  0  0  0  0  0
   -3.4831   -1.5389   -1.6750 H   0  0  0  0  0  0  0  0  0  0  0  0
   -2.3700   -0.3706   -1.0309 H   0  0  0  0  0  0  0  0  0  0  0  0
   -3.6740   -0.3770    1.1659 H   0  0  0  0  0  0  0  0  0  0  0  0
   -4.8100   -1.4956    0.4576 H   0  0  0  0  0  0  0  0  0  0  0  0
   -5.7317    0.1135   -1.0277 H   0  0  0  0  0  0  0  0  0  0  0  0
   -0.5562   -3.0504    0.9242 H   0  0  0  0  0  0  0  0  0  0  0  0
   -2.7044   -3.8798   -1.5460 H   0  0  0  0  0  0  0  0  0  0  0  0
   -2.0690   -4.4927   -0.0148 H   0  0  0  0  0  0  0  0  0  0  0  0
   -3.7117   -3.8456   -0.0816 H   0  0  0  0  0  0  0  0  0  0  0  0
   -0.9782    0.0018    0.6332 H   0  0  0  0  0  0  0  0  0  0  0  0
   -0.3995   -0.8419    2.0852 H   0  0  0  0  0  0  0  0  0  0  0  0
   -6.4309    2.2537   -1.4950 H   0  0  0  0  0  0  0  0  0  0  0  0
   -5.0804    3.3903   -1.5903 H   0  0  0  0  0  0  0  0  0  0  0  0
   -6.1444    3.3833   -0.1662 H   0  0  0  0  0  0  0  0  0  0  0  0
   -2.9459    1.6787    1.0137 H   0  0  0  0  0  0  0  0  0  0  0  0
   -4.0796    2.9718    1.4197 H   0  0  0  0  0  0  0  0  0  0  0  0
   -3.0594    3.0911   -0.0294 H   0  0  0  0  0  0  0  0  0  0  0  0
    3.0530   -1.9923    0.3445 H   0  0  0  0  0  0  0  0  0  0  0  0
    5.5216    2.0793   -1.0546 H   0  0  0  0  0  0  0  0  0  0  0  0
    5.2948   -2.1837   -0.6292 H   0  0  0  0  0  0  0  0  0  0  0  0
    6.5379   -0.1540   -1.3270 H   0  0  0  0  0  0  0  0  0  0  0  0
    3.6429    3.4176   -0.3413 H   0  0  0  0  0  0  0  0  0  0  0  0
    2.1913    2.7174    0.3316 H   0  0  0  0  0  0  0  0  0  0  0  0
  1 11  1  0  0  0  0
  1 15  1  0  0  0  0
  2 15  2  0  0  0  0
  3 16  1  0  0  0  0
  3 42  1  0  0  0  0
  3 43  1  0  0  0  0
  4  5  1  0  0  0  0
  4  6  1  0  0  0  0
  4 21  1  0  0  0  0
  4 22  1  0  0  0  0
  5  7  1  0  0  0  0
  5 23  1  0  0  0  0
  5 24  1  0  0  0  0
  6  8  2  0  0  0  0
  6  9  1  0  0  0  0
  7 10  2  0  0  0  0
  7 25  1  0  0  0  0
  8 11  1  0  0  0  0
  8 26  1  0  0  0  0
  9 27  1  0  0  0  0
  9 28  1  0  0  0  0
  9 29  1  0  0  0  0
 10 12  1  0  0  0  0
 10 13  1  0  0  0  0
 11 30  1  0  0  0  0
 11 31  1  0  0  0  0
 12 32  1  0  0  0  0
 12 33  1  0  0  0  0
 12 34  1  0  0  0  0
 13 35  1  0  0  0  0
 13 36  1  0  0  0  0
 13 37  1  0  0  0  0
 14 15  1  0  0  0  0
 14 16  1  0  0  0  0
 14 17  2  0  0  0  0
 16 18  2  0  0  0  0
 17 19  1  0  0  0  0
 17 38  1  0  0  0  0
 18 20  1  0  0  0  0
 18 39  1  0  0  0  0
 19 20  2  0  0  0  0
 19 40  1  0  0  0  0
 20 41  1  0  0  0  0
M  END
> <PUBCHEM_COMPOUND_CID>
21932486

> <PUBCHEM_CONFORMER_RMSD>
1.2

> <PUBCHEM_CONFORMER_DIVERSEORDER>
5
56
58
12
57
7
23
1
37
80
67
9
40
70
21
63
20
34
62
49
11
39
28
22
74
15
77
76
47
52
41
17
78
13
27
3
38
2
69
64
55
26
25
45
4
35
66
44
31
30
36
79
6
46
18
54
29
50
53
24
48
60
10
32
33
75
71
73
61
72
8
65
42
59
16
68
14
51
19
43

> <PUBCHEM_MMFF94_PARTIAL_CHARGES>
28
1 -0.43
10 -0.28
11 0.42
12 0.14
13 0.14
14 0.09
15 0.63
16 0.1
17 -0.15
18 -0.15
19 -0.15
2 -0.57
20 -0.15
25 0.15
26 0.15
3 -0.9
38 0.15
39 0.15
4 0.14
40 0.15
41 0.15
42 0.4
43 0.4
5 0.14
6 -0.28
7 -0.29
8 -0.29
9 0.14

> <PUBCHEM_EFFECTIVE_ROTOR_COUNT>
7

> <PUBCHEM_PHARMACOPHORE_FEATURES>
7
1 2 acceptor
1 3 cation
1 3 donor
1 9 hydrophobe
3 10 12 13 hydrophobe
4 4 5 6 7 hydrophobe
6 14 16 17 18 19 20 rings

> <PUBCHEM_HEAVY_ATOM_COUNT>
20

> <PUBCHEM_ATOM_DEF_STEREO_COUNT>
0

> <PUBCHEM_ATOM_UDEF_STEREO_COUNT>
0

> <PUBCHEM_BOND_DEF_STEREO_COUNT>
1

> <PUBCHEM_BOND_UDEF_STEREO_COUNT>
0

> <PUBCHEM_ISOTOPIC_ATOM_COUNT>
0

> <PUBCHEM_COMPONENT_COUNT>
1

> <PUBCHEM_CACTVS_TAUTO_COUNT>
2

> <PUBCHEM_CONFORMER_ID>
014EA9C600000005

> <PUBCHEM_MMFF94_ENERGY>
49.1974

> <PUBCHEM_FEATURE_SELFOVERLAP>
35.522

> <PUBCHEM_SHAPE_FINGERPRINT>
10670039 82 18335414652096220709
11014199 57 17900544785322694447
12107183 9 18190732029905231162
128238 76 8718527425071772154
13177829 73 18410289173096012472
13944108 23 17617090309884143085
14251740 79 18131637755483854297
14251752 14 18410576159069917942
14251757 5 18341897411155072369
14251764 75 18125163736984701705
14257110 125 18335981966216365069
14840074 17 17676493804938800429
15003188 33 18341338829357438308
15052358 14 18269846323971733086
15183329 4 18341334409577744838
15575132 122 17968090855788272733
17349148 13 13398632774724260062
17834072 32 18409446947711563633
17844677 252 18264215866475157166
17959699 21 18335142020367209200
20621476 91 8862650275210879181
221357 26 18271241750430341747
22393880 68 18271246135718772438
23402655 69 18335422387405946150
23559900 14 18131348648508527256
32948 21 18411139151825098318
3459 83 17986399884099532466
44062 13 18130789009405769991
5283173 99 18412263969241914056
543358 83 18335421249387650282
633830 44 17749107833237628506
7399639 24 17266365238464360291

> <PUBCHEM_SHAPE_MULTIPOLES>
394.87
14
3.51
0.99
1.29
0.95
-0.08
-7.55
4.64
-4.73
0.44
0.06
-0.12
0.19

> <PUBCHEM_SHAPE_SELFOVERLAP>
795.524

> <PUBCHEM_SHAPE_VOLUME>
231.3

> <PUBCHEM_COORDINATE_TYPE>
2
5
10

$$$$
