21933618
  -OEChem-11232109003D

 45 45  0     1  0  0  0  0  0999 V2000
   -0.0062    0.5159   -0.2353 O   0  0  0  0  0  0  0  0  0  0  0  0
   -1.6331    2.1400   -0.0264 O   0  0  0  0  0  0  0  0  0  0  0  0
   -3.5599    0.2708    0.0215 O   0  0  0  0  0  0  0  0  0  0  0  0
   -4.3688   -1.8884   -0.0640 O   0  0  0  0  0  0  0  0  0  0  0  0
    4.0313   -0.8033    0.6568 C   0  0  0  0  0  0  0  0  0  0  0  0
    2.3656    0.8448   -0.4240 C   0  0  1  0  0  0  0  0  0  0  0  0
    2.6994   -0.0289    0.7964 C   0  0  0  0  0  0  0  0  0  0  0  0
    4.0481   -1.5851   -0.6756 C   0  0  0  0  0  0  0  0  0  0  0  0
    2.3896    0.0144   -1.7125 C   0  0  0  0  0  0  0  0  0  0  0  0
    3.7141   -0.7209   -1.8905 C   0  0  0  0  0  0  0  0  0  0  0  0
    1.0038    1.5165   -0.2455 C   0  0  2  0  0  0  0  0  0  0  0  0
    4.1526   -1.8023    1.8234 C   0  0  0  0  0  0  0  0  0  0  0  0
    5.2313    0.1606    0.7352 C   0  0  0  0  0  0  0  0  0  0  0  0
    0.9393    2.3151    1.0440 C   0  0  0  0  0  0  0  0  0  0  0  0
   -1.2937    0.9682   -0.1196 C   0  0  0  0  0  0  0  0  0  0  0  0
   -2.2369   -0.2058   -0.1237 C   0  0  0  0  0  0  0  0  0  0  0  0
   -4.5488   -0.6826    0.0370 C   0  0  0  0  0  0  0  0  0  0  0  0
   -5.8935   -0.0132    0.1987 C   0  0  0  0  0  0  0  0  0  0  0  0
   -7.0342   -1.0158    0.2043 C   0  0  0  0  0  0  0  0  0  0  0  0
    3.1224    1.6351   -0.5092 H   0  0  0  0  0  0  0  0  0  0  0  0
    1.8882   -0.7525    0.9557 H   0  0  0  0  0  0  0  0  0  0  0  0
    2.7500    0.5812    1.7061 H   0  0  0  0  0  0  0  0  0  0  0  0
    5.0269   -2.0571   -0.8272 H   0  0  0  0  0  0  0  0  0  0  0  0
    3.3165   -2.4030   -0.6265 H   0  0  0  0  0  0  0  0  0  0  0  0
    1.5814   -0.7274   -1.7105 H   0  0  0  0  0  0  0  0  0  0  0  0
    2.2186    0.6644   -2.5791 H   0  0  0  0  0  0  0  0  0  0  0  0
    4.5172    0.0025   -2.0716 H   0  0  0  0  0  0  0  0  0  0  0  0
    3.6608   -1.3550   -2.7832 H   0  0  0  0  0  0  0  0  0  0  0  0
    0.8345    2.1839   -1.1009 H   0  0  0  0  0  0  0  0  0  0  0  0
    5.0849   -2.3746    1.7588 H   0  0  0  0  0  0  0  0  0  0  0  0
    3.3231   -2.5185    1.8220 H   0  0  0  0  0  0  0  0  0  0  0  0
    4.1432   -1.2856    2.7898 H   0  0  0  0  0  0  0  0  0  0  0  0
    5.2270    0.9035   -0.0673 H   0  0  0  0  0  0  0  0  0  0  0  0
    6.1782   -0.3872    0.6664 H   0  0  0  0  0  0  0  0  0  0  0  0
    5.2343    0.7063    1.6857 H   0  0  0  0  0  0  0  0  0  0  0  0
    1.8860    2.8321    1.2381 H   0  0  0  0  0  0  0  0  0  0  0  0
    0.1850    3.1063    1.0017 H   0  0  0  0  0  0  0  0  0  0  0  0
    0.6948    1.6892    1.9093 H   0  0  0  0  0  0  0  0  0  0  0  0
   -2.1345   -0.7323   -1.0784 H   0  0  0  0  0  0  0  0  0  0  0  0
   -1.9847   -0.8594    0.7180 H   0  0  0  0  0  0  0  0  0  0  0  0
   -5.8922    0.5415    1.1428 H   0  0  0  0  0  0  0  0  0  0  0  0
   -6.0322    0.6890   -0.6302 H   0  0  0  0  0  0  0  0  0  0  0  0
   -6.9260   -1.7300    1.0274 H   0  0  0  0  0  0  0  0  0  0  0  0
   -7.9931   -0.5017    0.3211 H   0  0  0  0  0  0  0  0  0  0  0  0
   -7.0622   -1.5848   -0.7309 H   0  0  0  0  0  0  0  0  0  0  0  0
  1 11  1  0  0  0  0
  1 15  1  0  0  0  0
  2 15  2  0  0  0  0
  3 16  1  0  0  0  0
  3 17  1  0  0  0  0
  4 17  2  0  0  0  0
  5  7  1  0  0  0  0
  5  8  1  0  0  0  0
  5 12  1  0  0  0  0
  5 13  1  0  0  0  0
  6  7  1  0  0  0  0
  6  9  1  0  0  0  0
  6 11  1  0  0  0  0
  6 20  1  0  0  0  0
  7 21  1  0  0  0  0
  7 22  1  0  0  0  0
  8 10  1  0  0  0  0
  8 23  1  0  0  0  0
  8 24  1  0  0  0  0
  9 10  1  0  0  0  0
  9 25  1  0  0  0  0
  9 26  1  0  0  0  0
 10 27  1  0  0  0  0
 10 28  1  0  0  0  0
 11 14  1  0  0  0  0
 11 29  1  0  0  0  0
 12 30  1  0  0  0  0
 12 31  1  0  0  0  0
 12 32  1  0  0  0  0
 13 33  1  0  0  0  0
 13 34  1  0  0  0  0
 13 35  1  0  0  0  0
 14 36  1  0  0  0  0
 14 37  1  0  0  0  0
 14 38  1  0  0  0  0
 15 16  1  0  0  0  0
 16 39  1  0  0  0  0
 16 40  1  0  0  0  0
 17 18  1  0  0  0  0
 18 19  1  0  0  0  0
 18 41  1  0  0  0  0
 18 42  1  0  0  0  0
 19 43  1  0  0  0  0
 19 44  1  0  0  0  0
 19 45  1  0  0  0  0
M  END
> <PUBCHEM_COMPOUND_CID>
21933618

> <PUBCHEM_CONFORMER_RMSD>
1

> <PUBCHEM_CONFORMER_DIVERSEORDER>
2
99
218
160
59
217
53
216
139
22
14
208
71
159
201
135
206
162
94
87
147
72
180
157
33
30
115
213
80
131
39
211
95
143
35
210
38
223
63
133
117
43
93
7
57
158
64
41
25
170
12
82
19
196
125
18
46
195
123
79
220
192
13
183
6
168
166
51
221
209
129
161
119
188
122
204
67
8
24
165
142
185
113
29
102
90
11
156
40
150
173
152
186
203
205
31
174
178
130
1
109
68
52
136
10
214
146
15
219
42
120
181
65
85
224
141
190
100
17
202
84
21
92
78
212
153
55
96
110
128
89
189
175
225
62
116
44
200
54
3
97
169
105
88
106
167
60
9
155
5
179
74
58
182
4
34
45
107
83
16
140
124
198
70
86
137
184
121
47
163
171
154
26
50
191
108
118
23
114
222
126
27
101
207
111
132
98
149
127
145
112
37
76
77
91
164
144
48
49
172
193
197
138
56
66
199
104
134
69
75
73
61
81
36
148
28
176
177
20
32
103
194
151
215
187

> <PUBCHEM_MMFF94_PARTIAL_CHARGES>
9
1 -0.43
11 0.28
15 0.66
16 0.34
17 0.66
18 0.06
2 -0.57
3 -0.43
4 -0.57

> <PUBCHEM_EFFECTIVE_ROTOR_COUNT>
8.2

> <PUBCHEM_PHARMACOPHORE_FEATURES>
5
1 19 hydrophobe
1 2 acceptor
1 4 acceptor
3 5 12 13 hydrophobe
6 5 6 7 8 9 10 rings

> <PUBCHEM_HEAVY_ATOM_COUNT>
19

> <PUBCHEM_ATOM_DEF_STEREO_COUNT>
0

> <PUBCHEM_ATOM_UDEF_STEREO_COUNT>
2

> <PUBCHEM_BOND_DEF_STEREO_COUNT>
0

> <PUBCHEM_BOND_UDEF_STEREO_COUNT>
0

> <PUBCHEM_ISOTOPIC_ATOM_COUNT>
0

> <PUBCHEM_COMPONENT_COUNT>
1

> <PUBCHEM_CACTVS_TAUTO_COUNT>
1

> <PUBCHEM_CONFORMER_ID>
014EAE3200000002

> <PUBCHEM_MMFF94_ENERGY>
32.801

> <PUBCHEM_FEATURE_SELFOVERLAP>
25.372

> <PUBCHEM_SHAPE_FINGERPRINT>
10354089 29 14045740426457330930
10378564 45 13190325855946328042
10447042 23 18261381244231943246
11128504 68 15140963976170349407
11724838 91 13038893452727084825
11796584 16 18334577949480421851
12507560 40 16271933661982098793
125118 31 11527686163394787203
12596602 18 14261349167975796527
12892183 10 16415483701118038768
13533116 47 17967813842617287714
13675066 3 17131835343835942245
13685833 64 18335422391922466315
13836976 161 16732984223826662042
13955234 65 18119250803303987641
14178342 30 17985834726580374456
1420 369 18409730642706259979
14251740 57 18268147557212005810
14251751 18 18186513289677542605
14251752 14 17749384829096089045
14251764 18 18272373113904648673
14252887 29 17775288248887689046
14341114 328 13614235979686976414
14528608 73 11530482255311542083
14576447 43 17822294548745266478
14774955 27 11024103252896600067
15142526 21 13685424998536934886
15183329 4 16950564351012078423
15342816 4 18260832553807087676
15885798 251 18343305859886340849
17857418 61 18408037421012432899
1813 80 18334303058504090085
18186145 218 13046522890982382580
19141452 34 17703788150289954895
19784866 140 15574710288236707413
19784866 240 17676486095208226698
1979834 28 17132123437288743455
20369508 70 18409447011592734628
20374829 77 18408040723884241181
20397935 70 17060346227453408943
20403669 9 18412546509412796415
20626108 58 17968088673749141648
20645477 70 18410295843111755309
21304303 94 16515401858946837314
221357 26 14129053716575819911
22224240 67 17203316845752974834
23016692 55 18411146826509507583
23253445 4 17060334136824967320
23503953 91 17203322364469276957
23559900 14 18188208831150016913
239999 70 18342181081308379814
270888 7 11455302056857191386
29717793 49 16515401859163094751
3004659 81 18260838102261386142
3060560 45 13984378881745424320
314173 85 18272658943672411241
3411729 13 18057036024810534568
3472631 163 9655277255497859026
351380 3 18333448738069385139
3545911 37 9079119968619751769
4325135 7 18334015025745119492
46194498 28 15502376729338438926
465052 167 18411143558372048815
474 4 11671781589238780844
4990 188 14490193803934227000
5104073 3 17774156774197822786
59682541 35 18341321297796964968
59682541 52 14779535786642495987
7808743 9 9943223953491644018
8863177 126 17970643007118079731
960060 61 17458350757652898735
9841814 1 18342461469157691920

> <PUBCHEM_SHAPE_MULTIPOLES>
367.53
14.44
1.93
1.35
23.39
0.48
0.21
-8.32
-1.94
-0.32
-0.45
-2.35
-0.36
-0.19

> <PUBCHEM_SHAPE_SELFOVERLAP>
725.822

> <PUBCHEM_SHAPE_VOLUME>
217.5

> <PUBCHEM_COORDINATE_TYPE>
2
5
10

$$$$
