219461
  -OEChem-11232109083D

 14 14  0     0  0  0  0  0  0999 V2000
   -1.6643   -1.0249   -0.0523 S   0  0  0  0  0  0  0  0  0  0  0  0
   -1.6644    1.0250   -0.0525 S   0  0  0  0  0  0  0  0  0  0  0  0
    0.8094    0.0000   -0.3408 C   0  0  0  0  0  0  0  0  0  0  0  0
    0.1136   -1.2474    0.2111 C   0  0  0  0  0  0  0  0  0  0  0  0
    0.1136    1.2472    0.2113 C   0  0  0  0  0  0  0  0  0  0  0  0
    2.2921    0.0001    0.0233 C   0  0  0  0  0  0  0  0  0  0  0  0
    0.7387    0.0000   -1.4382 H   0  0  0  0  0  0  0  0  0  0  0  0
    0.4545   -2.1538   -0.2985 H   0  0  0  0  0  0  0  0  0  0  0  0
    0.2984   -1.3697    1.2839 H   0  0  0  0  0  0  0  0  0  0  0  0
    0.2982    1.3694    1.2841 H   0  0  0  0  0  0  0  0  0  0  0  0
    0.4544    2.1539   -0.2980 H   0  0  0  0  0  0  0  0  0  0  0  0
    2.7907   -0.8853   -0.3848 H   0  0  0  0  0  0  0  0  0  0  0  0
    2.7906    0.8856   -0.3847 H   0  0  0  0  0  0  0  0  0  0  0  0
    2.4376    0.0000    1.1090 H   0  0  0  0  0  0  0  0  0  0  0  0
  1  2  1  0  0  0  0
  1  4  1  0  0  0  0
  2  5  1  0  0  0  0
  3  4  1  0  0  0  0
  3  5  1  0  0  0  0
  3  6  1  0  0  0  0
  3  7  1  0  0  0  0
  4  8  1  0  0  0  0
  4  9  1  0  0  0  0
  5 10  1  0  0  0  0
  5 11  1  0  0  0  0
  6 12  1  0  0  0  0
  6 13  1  0  0  0  0
  6 14  1  0  0  0  0
M  END
> <PUBCHEM_COMPOUND_CID>
219461

> <PUBCHEM_CONFORMER_RMSD>
0.4

> <PUBCHEM_CONFORMER_DIVERSEORDER>
1
2

> <PUBCHEM_MMFF94_PARTIAL_CHARGES>
4
1 -0.23
2 -0.23
4 0.23
5 0.23

> <PUBCHEM_EFFECTIVE_ROTOR_COUNT>
1

> <PUBCHEM_PHARMACOPHORE_FEATURES>
1
5 1 2 3 4 5 rings

> <PUBCHEM_HEAVY_ATOM_COUNT>
6

> <PUBCHEM_ATOM_DEF_STEREO_COUNT>
0

> <PUBCHEM_ATOM_UDEF_STEREO_COUNT>
0

> <PUBCHEM_BOND_DEF_STEREO_COUNT>
0

> <PUBCHEM_BOND_UDEF_STEREO_COUNT>
0

> <PUBCHEM_ISOTOPIC_ATOM_COUNT>
0

> <PUBCHEM_COMPONENT_COUNT>
1

> <PUBCHEM_CACTVS_TAUTO_COUNT>
1

> <PUBCHEM_CONFORMER_ID>
0003594500000001

> <PUBCHEM_MMFF94_ENERGY>
4.7043

> <PUBCHEM_FEATURE_SELFOVERLAP>
5.074

> <PUBCHEM_SHAPE_FINGERPRINT>
139733 1 9006796270886773223
16714656 1 18410860957691575508
18185500 45 18336543833062424723
20096714 4 18266180530581899029
21040471 1 18266460893083101653
23552423 10 18260835864958224246
23552449 1 18341611542194871592
29004967 10 16630531734481580118
5943 1 12705884799291921564

> <PUBCHEM_SHAPE_MULTIPOLES>
131.18
2.6
1.52
0.68
0.7
0
0.01
0
0.07
-0.55
-0.09
-0.03
0
0

> <PUBCHEM_SHAPE_SELFOVERLAP>
223.521

> <PUBCHEM_SHAPE_VOLUME>
87.7

> <PUBCHEM_COORDINATE_TYPE>
2
5
10

$$$$
