22011445
  -OEChem-11232109043D

 43 42  0     0  0  0  0  0  0999 V2000
    0.5188    0.6549    0.2069 O   0  0  0  0  0  0  0  0  0  0  0  0
   -1.4936   -0.5201    0.5650 O   0  0  0  0  0  0  0  0  0  0  0  0
    0.5821   -1.5424    1.1971 C   0  0  0  0  0  0  0  0  0  0  0  0
   -0.1921   -0.2221    1.0874 C   0  0  0  0  0  0  0  0  0  0  0  0
    0.7738   -2.2230   -0.1610 C   0  0  0  0  0  0  0  0  0  0  0  0
    1.6049   -3.4994   -0.0291 C   0  0  0  0  0  0  0  0  0  0  0  0
    1.8331    0.9484    0.6614 C   0  0  0  0  0  0  0  0  0  0  0  0
   -2.2976    0.6435    0.4232 C   0  0  0  0  0  0  0  0  0  0  0  0
    2.5018    1.8822   -0.3375 C   0  0  0  0  0  0  0  0  0  0  0  0
   -3.6549    0.2385   -0.1342 C   0  0  0  0  0  0  0  0  0  0  0  0
    3.9280    2.2276    0.0816 C   0  0  0  0  0  0  0  0  0  0  0  0
   -4.5677    1.4459   -0.3276 C   0  0  0  0  0  0  0  0  0  0  0  0
    1.7632   -4.2020   -1.3682 C   0  0  0  0  0  0  0  0  0  0  0  0
    4.6069    3.1255   -0.9403 C   0  0  0  0  0  0  0  0  0  0  0  0
   -5.9064    1.0425   -0.9247 C   0  0  0  0  0  0  0  0  0  0  0  0
   -0.0044   -2.2238    1.8286 H   0  0  0  0  0  0  0  0  0  0  0  0
    1.5406   -1.4217    1.7102 H   0  0  0  0  0  0  0  0  0  0  0  0
   -0.2987    0.2404    2.0764 H   0  0  0  0  0  0  0  0  0  0  0  0
   -0.2027   -2.4692   -0.5954 H   0  0  0  0  0  0  0  0  0  0  0  0
    1.2749   -1.5467   -0.8630 H   0  0  0  0  0  0  0  0  0  0  0  0
    1.1259   -4.1844    0.6804 H   0  0  0  0  0  0  0  0  0  0  0  0
    2.5966   -3.2582    0.3709 H   0  0  0  0  0  0  0  0  0  0  0  0
    1.7848    1.4180    1.6504 H   0  0  0  0  0  0  0  0  0  0  0  0
    2.4529    0.0507    0.7184 H   0  0  0  0  0  0  0  0  0  0  0  0
   -2.4195    1.1250    1.4004 H   0  0  0  0  0  0  0  0  0  0  0  0
   -1.8171    1.3507   -0.2620 H   0  0  0  0  0  0  0  0  0  0  0  0
    1.9034    2.7962   -0.4390 H   0  0  0  0  0  0  0  0  0  0  0  0
    2.5008    1.4119   -1.3290 H   0  0  0  0  0  0  0  0  0  0  0  0
   -4.1240   -0.4889    0.5402 H   0  0  0  0  0  0  0  0  0  0  0  0
   -3.5120   -0.2859   -1.0874 H   0  0  0  0  0  0  0  0  0  0  0  0
    4.5164    1.3099    0.1968 H   0  0  0  0  0  0  0  0  0  0  0  0
    3.9182    2.7313    1.0551 H   0  0  0  0  0  0  0  0  0  0  0  0
   -4.7366    1.9431    0.6347 H   0  0  0  0  0  0  0  0  0  0  0  0
   -4.0864    2.1753   -0.9896 H   0  0  0  0  0  0  0  0  0  0  0  0
    2.2670   -3.5549   -2.0934 H   0  0  0  0  0  0  0  0  0  0  0  0
    2.3614   -5.1109   -1.2508 H   0  0  0  0  0  0  0  0  0  0  0  0
    0.7895   -4.4868   -1.7796 H   0  0  0  0  0  0  0  0  0  0  0  0
    4.6633    2.6352   -1.9175 H   0  0  0  0  0  0  0  0  0  0  0  0
    4.0612    4.0670   -1.0590 H   0  0  0  0  0  0  0  0  0  0  0  0
    5.6262    3.3617   -0.6195 H   0  0  0  0  0  0  0  0  0  0  0  0
   -5.7736    0.5731   -1.9047 H   0  0  0  0  0  0  0  0  0  0  0  0
   -6.4294    0.3354   -0.2728 H   0  0  0  0  0  0  0  0  0  0  0  0
   -6.5447    1.9223   -1.0532 H   0  0  0  0  0  0  0  0  0  0  0  0
  1  4  1  0  0  0  0
  1  7  1  0  0  0  0
  2  4  1  0  0  0  0
  2  8  1  0  0  0  0
  3  4  1  0  0  0  0
  3  5  1  0  0  0  0
  3 16  1  0  0  0  0
  3 17  1  0  0  0  0
  4 18  1  0  0  0  0
  5  6  1  0  0  0  0
  5 19  1  0  0  0  0
  5 20  1  0  0  0  0
  6 13  1  0  0  0  0
  6 21  1  0  0  0  0
  6 22  1  0  0  0  0
  7  9  1  0  0  0  0
  7 23  1  0  0  0  0
  7 24  1  0  0  0  0
  8 10  1  0  0  0  0
  8 25  1  0  0  0  0
  8 26  1  0  0  0  0
  9 11  1  0  0  0  0
  9 27  1  0  0  0  0
  9 28  1  0  0  0  0
 10 12  1  0  0  0  0
 10 29  1  0  0  0  0
 10 30  1  0  0  0  0
 11 14  1  0  0  0  0
 11 31  1  0  0  0  0
 11 32  1  0  0  0  0
 12 15  1  0  0  0  0
 12 33  1  0  0  0  0
 12 34  1  0  0  0  0
 13 35  1  0  0  0  0
 13 36  1  0  0  0  0
 13 37  1  0  0  0  0
 14 38  1  0  0  0  0
 14 39  1  0  0  0  0
 14 40  1  0  0  0  0
 15 41  1  0  0  0  0
 15 42  1  0  0  0  0
 15 43  1  0  0  0  0
M  END
> <PUBCHEM_COMPOUND_CID>
22011445

> <PUBCHEM_CONFORMER_RMSD>
1

> <PUBCHEM_CONFORMER_DIVERSEORDER>
1
113
78
2
74
36
119
124
69
55
114
122
58
108
88
66
103
117
40
20
63
62
67
102
111
34
105
64
96
6
76
101
47
104
128
28
31
27
127
45
125
84
53
16
3
80
52
121
15
48
110
112
123
54
99
77
65
50
85
72
97
49
43
37
24
115
116
9
10
93
38
35
73
60
56
130
21
59
44
61
42
87
29
100
83
23
75
11
86
30
17
71
5
109
33
95
8
32
22
89
131
18
120
106
94
68
14
126
51
19
90
98
129
46
4
26
79
107
118
92
82
39
13
25
12
41
70
91
57
81
7

> <PUBCHEM_MMFF94_PARTIAL_CHARGES>
5
1 -0.56
2 -0.56
4 0.56
7 0.28
8 0.28

> <PUBCHEM_EFFECTIVE_ROTOR_COUNT>
11

> <PUBCHEM_PHARMACOPHORE_FEATURES>
5
1 1 acceptor
1 13 hydrophobe
1 14 hydrophobe
1 15 hydrophobe
1 2 acceptor

> <PUBCHEM_HEAVY_ATOM_COUNT>
15

> <PUBCHEM_ATOM_DEF_STEREO_COUNT>
0

> <PUBCHEM_ATOM_UDEF_STEREO_COUNT>
0

> <PUBCHEM_BOND_DEF_STEREO_COUNT>
0

> <PUBCHEM_BOND_UDEF_STEREO_COUNT>
0

> <PUBCHEM_ISOTOPIC_ATOM_COUNT>
0

> <PUBCHEM_COMPONENT_COUNT>
1

> <PUBCHEM_CACTVS_TAUTO_COUNT>
1

> <PUBCHEM_CONFORMER_ID>
014FDE3500000001

> <PUBCHEM_MMFF94_ENERGY>
10.3158

> <PUBCHEM_FEATURE_SELFOVERLAP>
25.412

> <PUBCHEM_SHAPE_FINGERPRINT>
12500047 106 18124320669153042936
14178000 29 17840303320489297535
14508225 48 17692534407945318790
15502722 9 18411140208197246603
167882 2 18408890633572239946
17539 30 17477762846169046574
18915476 22 18339378400088502843
20388580 30 17985261872622402463
20524608 308 17907304595784775488
20645477 70 18338508626662198971
20671657 53 17908138776986304467
21499 59 18337107964184840425
21524375 3 18116145752222425000
2297311 6 8790068274815993008
3057174 1 18341902930241023230
46194498 28 18264479590963664981
60123966 16 18045760318445564021
6025842 7 18412256212773609551
7364860 26 18340483353107227787
81228 2 17044292532864514458
81539 233 18408601465686480073
9841814 1 17971467395318679715

> <PUBCHEM_SHAPE_MULTIPOLES>
296.95
9.55
4.8
1.11
12.74
5.28
-0.04
-11.27
-4.04
-7.93
-2.25
-0.2
0.41
0.24

> <PUBCHEM_SHAPE_SELFOVERLAP>
534.482

> <PUBCHEM_SHAPE_VOLUME>
191.5

> <PUBCHEM_COORDINATE_TYPE>
2
5
10

$$$$
