22034852
  -OEChem-11232109473D

 31 31  0     0  0  0  0  0  0999 V2000
   -2.2054    0.2192    0.3058 O   0  0  0  0  0  0  0  0  0  0  0  0
   -0.8361   -1.1309   -0.9692 O   0  0  0  0  0  0  0  0  0  0  0  0
    1.4611    0.2828   -0.1558 C   0  0  0  0  0  0  0  0  0  0  0  0
    2.4475    1.4531   -0.0428 C   0  0  0  0  0  0  0  0  0  0  0  0
    1.9809   -0.9451    0.6038 C   0  0  0  0  0  0  0  0  0  0  0  0
    3.8491    1.0550   -0.4996 C   0  0  0  0  0  0  0  0  0  0  0  0
    3.3834   -1.3392    0.1461 C   0  0  0  0  0  0  0  0  0  0  0  0
    4.3588   -0.1710    0.2515 C   0  0  0  0  0  0  0  0  0  0  0  0
    0.0807    0.6895    0.3564 C   0  0  0  0  0  0  0  0  0  0  0  0
   -1.0055   -0.1968   -0.1977 C   0  0  0  0  0  0  0  0  0  0  0  0
   -3.3475   -0.5262   -0.1284 C   0  0  0  0  0  0  0  0  0  0  0  0
   -4.5679    0.0520    0.5076 C   0  0  0  0  0  0  0  0  0  0  0  0
   -5.5993    0.5576   -0.1776 C   0  0  0  0  0  0  0  0  0  0  0  0
    1.3918    0.0214   -1.2210 H   0  0  0  0  0  0  0  0  0  0  0  0
    2.0995    2.2979   -0.6492 H   0  0  0  0  0  0  0  0  0  0  0  0
    2.4917    1.8039    0.9963 H   0  0  0  0  0  0  0  0  0  0  0  0
    2.0043   -0.7355    1.6811 H   0  0  0  0  0  0  0  0  0  0  0  0
    1.3098   -1.7999    0.4639 H   0  0  0  0  0  0  0  0  0  0  0  0
    4.5382    1.8933   -0.3468 H   0  0  0  0  0  0  0  0  0  0  0  0
    3.8361    0.8446   -1.5761 H   0  0  0  0  0  0  0  0  0  0  0  0
    3.3431   -1.6891   -0.8928 H   0  0  0  0  0  0  0  0  0  0  0  0
    3.7465   -2.1774    0.7514 H   0  0  0  0  0  0  0  0  0  0  0  0
    5.3353   -0.4684   -0.1472 H   0  0  0  0  0  0  0  0  0  0  0  0
    4.5090    0.0846    1.3076 H   0  0  0  0  0  0  0  0  0  0  0  0
    0.0448    0.6590    1.4512 H   0  0  0  0  0  0  0  0  0  0  0  0
   -0.1491    1.7106    0.0284 H   0  0  0  0  0  0  0  0  0  0  0  0
   -3.4113   -0.4885   -1.2223 H   0  0  0  0  0  0  0  0  0  0  0  0
   -3.2404   -1.5704    0.1871 H   0  0  0  0  0  0  0  0  0  0  0  0
   -4.6125    0.0535    1.5935 H   0  0  0  0  0  0  0  0  0  0  0  0
   -6.4598    0.9620    0.3442 H   0  0  0  0  0  0  0  0  0  0  0  0
   -5.6054    0.5783   -1.2618 H   0  0  0  0  0  0  0  0  0  0  0  0
  1 10  1  0  0  0  0
  1 11  1  0  0  0  0
  2 10  2  0  0  0  0
  3  4  1  0  0  0  0
  3  5  1  0  0  0  0
  3  9  1  0  0  0  0
  3 14  1  0  0  0  0
  4  6  1  0  0  0  0
  4 15  1  0  0  0  0
  4 16  1  0  0  0  0
  5  7  1  0  0  0  0
  5 17  1  0  0  0  0
  5 18  1  0  0  0  0
  6  8  1  0  0  0  0
  6 19  1  0  0  0  0
  6 20  1  0  0  0  0
  7  8  1  0  0  0  0
  7 21  1  0  0  0  0
  7 22  1  0  0  0  0
  8 23  1  0  0  0  0
  8 24  1  0  0  0  0
  9 10  1  0  0  0  0
  9 25  1  0  0  0  0
  9 26  1  0  0  0  0
 11 12  1  0  0  0  0
 11 27  1  0  0  0  0
 11 28  1  0  0  0  0
 12 13  2  0  0  0  0
 12 29  1  0  0  0  0
 13 30  1  0  0  0  0
 13 31  1  0  0  0  0
M  END
> <PUBCHEM_COMPOUND_CID>
22034852

> <PUBCHEM_CONFORMER_RMSD>
0.8

> <PUBCHEM_CONFORMER_DIVERSEORDER>
1
30
55
37
42
39
17
15
24
19
10
44
35
54
18
33
51
34
53
52
25
11
31
5
45
38
6
46
48
7
23
12
16
14
36
29
2
3
22
28
4
43
8
21
9
41
27
50
26
47
49
40
20
32
13

> <PUBCHEM_MMFF94_PARTIAL_CHARGES>
10
1 -0.43
10 0.66
11 0.42
12 -0.29
13 -0.3
2 -0.57
29 0.15
30 0.15
31 0.15
9 0.06

> <PUBCHEM_EFFECTIVE_ROTOR_COUNT>
6.2

> <PUBCHEM_PHARMACOPHORE_FEATURES>
3
1 13 hydrophobe
1 2 acceptor
6 3 4 5 6 7 8 rings

> <PUBCHEM_HEAVY_ATOM_COUNT>
13

> <PUBCHEM_ATOM_DEF_STEREO_COUNT>
0

> <PUBCHEM_ATOM_UDEF_STEREO_COUNT>
0

> <PUBCHEM_BOND_DEF_STEREO_COUNT>
0

> <PUBCHEM_BOND_UDEF_STEREO_COUNT>
0

> <PUBCHEM_ISOTOPIC_ATOM_COUNT>
0

> <PUBCHEM_COMPONENT_COUNT>
1

> <PUBCHEM_CACTVS_TAUTO_COUNT>
1

> <PUBCHEM_CONFORMER_ID>
015039A400000001

> <PUBCHEM_MMFF94_ENERGY>
8.7676

> <PUBCHEM_FEATURE_SELFOVERLAP>
15.223

> <PUBCHEM_SHAPE_FINGERPRINT>
11287383 113 17313109682639426641
11401426 45 17275383209866103893
11471102 20 18335139799890229104
13167823 11 18411134775327621047
13760787 19 18411139177188915207
14123238 8 18342176665718054385
1420 363 13254793569137475045
15242433 33 18411420622016341735
17834072 33 18411135883344488535
18186145 218 17749100110564423307
20279233 1 16950006932396253097
20645477 70 18336264556988098539
212847 35 18273495671688839609
22485316 2 18259703410830892323
23048698 100 18410859854006384433
23402539 116 16773792585228140517
23402655 69 18410293631245665860
23557571 272 15285632149401038750
26918003 58 18114181942876939449
300161 21 18342168990421585865
4047638 21 17167864184068173920
42 15 18260268542558907179
42788 4 18333169466621575473
449060 50 17822013150534609437
522135 26 18408604755826549138
77779 3 18333733528813218971
8272917 22 18338239267123793463

> <PUBCHEM_SHAPE_MULTIPOLES>
255.8
10.71
1.25
0.76
11.17
0.02
0.03
1
-0.29
-1.15
0.05
0.03
-0.06
-0.32

> <PUBCHEM_SHAPE_SELFOVERLAP>
496.109

> <PUBCHEM_SHAPE_VOLUME>
153.3

> <PUBCHEM_COORDINATE_TYPE>
2
5
10

$$$$
