220674
  -OEChem-11232108543D

 36 36  0     1  0  0  0  0  0999 V2000
    1.2878   -0.9674    0.3938 O   0  0  0  0  0  0  0  0  0  0  0  0
    2.8821   -0.3512   -1.1603 O   0  0  0  0  0  0  0  0  0  0  0  0
   -1.0758   -0.4586    0.4352 C   0  0  1  0  0  0  0  0  0  0  0  0
    0.2979   -0.1010   -0.1555 C   0  0  1  0  0  0  0  0  0  0  0  0
   -2.1455    0.5386   -0.0285 C   0  0  0  0  0  0  0  0  0  0  0  0
   -0.3870    2.3373   -0.3154 C   0  0  1  0  0  0  0  0  0  0  0  0
    0.6840    1.3474    0.1532 C   0  0  0  0  0  0  0  0  0  0  0  0
   -1.7521    1.9806    0.2847 C   0  0  0  0  0  0  0  0  0  0  0  0
   -1.4869   -1.8870    0.0679 C   0  0  0  0  0  0  0  0  0  0  0  0
    0.0047    3.7685    0.0472 C   0  0  0  0  0  0  0  0  0  0  0  0
   -2.7923   -2.2616    0.7632 C   0  0  0  0  0  0  0  0  0  0  0  0
   -1.6201   -2.0311   -1.4452 C   0  0  0  0  0  0  0  0  0  0  0  0
    2.5623   -0.7698   -0.0558 C   0  0  0  0  0  0  0  0  0  0  0  0
    3.5411   -1.1446    1.0154 C   0  0  0  0  0  0  0  0  0  0  0  0
   -0.9958   -0.4046    1.5306 H   0  0  0  0  0  0  0  0  0  0  0  0
    0.2925   -0.2116   -1.2449 H   0  0  0  0  0  0  0  0  0  0  0  0
   -3.1058    0.3468    0.4606 H   0  0  0  0  0  0  0  0  0  0  0  0
   -2.3140    0.4826   -1.1083 H   0  0  0  0  0  0  0  0  0  0  0  0
   -0.4616    2.2756   -1.4094 H   0  0  0  0  0  0  0  0  0  0  0  0
    1.6359    1.6173   -0.3174 H   0  0  0  0  0  0  0  0  0  0  0  0
    0.8525    1.4555    1.2337 H   0  0  0  0  0  0  0  0  0  0  0  0
   -2.5205    2.6586   -0.1063 H   0  0  0  0  0  0  0  0  0  0  0  0
   -1.7306    2.1206    1.3731 H   0  0  0  0  0  0  0  0  0  0  0  0
   -0.7156   -2.5852    0.4162 H   0  0  0  0  0  0  0  0  0  0  0  0
    0.9639    4.0361   -0.4082 H   0  0  0  0  0  0  0  0  0  0  0  0
   -0.7466    4.4793   -0.3127 H   0  0  0  0  0  0  0  0  0  0  0  0
    0.0976    3.8940    1.1313 H   0  0  0  0  0  0  0  0  0  0  0  0
   -3.6614   -1.7517    0.3364 H   0  0  0  0  0  0  0  0  0  0  0  0
   -2.9758   -3.3370    0.6556 H   0  0  0  0  0  0  0  0  0  0  0  0
   -2.7504   -2.0442    1.8356 H   0  0  0  0  0  0  0  0  0  0  0  0
   -2.4199   -1.4241   -1.8767 H   0  0  0  0  0  0  0  0  0  0  0  0
   -1.8795   -3.0716   -1.6800 H   0  0  0  0  0  0  0  0  0  0  0  0
   -0.6911   -1.8341   -1.9839 H   0  0  0  0  0  0  0  0  0  0  0  0
    3.4231   -2.2002    1.2723 H   0  0  0  0  0  0  0  0  0  0  0  0
    3.3865   -0.5141    1.8946 H   0  0  0  0  0  0  0  0  0  0  0  0
    4.5591   -0.9868    0.6479 H   0  0  0  0  0  0  0  0  0  0  0  0
  1  4  1  0  0  0  0
  1 13  1  0  0  0  0
  2 13  2  0  0  0  0
  3  4  1  0  0  0  0
  3  5  1  0  0  0  0
  3  9  1  0  0  0  0
  3 15  1  0  0  0  0
  4  7  1  0  0  0  0
  4 16  1  0  0  0  0
  5  8  1  0  0  0  0
  5 17  1  0  0  0  0
  5 18  1  0  0  0  0
  6  7  1  0  0  0  0
  6  8  1  0  0  0  0
  6 10  1  0  0  0  0
  6 19  1  0  0  0  0
  7 20  1  0  0  0  0
  7 21  1  0  0  0  0
  8 22  1  0  0  0  0
  8 23  1  0  0  0  0
  9 11  1  0  0  0  0
  9 12  1  0  0  0  0
  9 24  1  0  0  0  0
 10 25  1  0  0  0  0
 10 26  1  0  0  0  0
 10 27  1  0  0  0  0
 11 28  1  0  0  0  0
 11 29  1  0  0  0  0
 11 30  1  0  0  0  0
 12 31  1  0  0  0  0
 12 32  1  0  0  0  0
 12 33  1  0  0  0  0
 13 14  1  0  0  0  0
 14 34  1  0  0  0  0
 14 35  1  0  0  0  0
 14 36  1  0  0  0  0
M  END
> <PUBCHEM_COMPOUND_CID>
220674

> <PUBCHEM_CONFORMER_RMSD>
0.6

> <PUBCHEM_CONFORMER_DIVERSEORDER>
1
8
4
12
3
5
11
6
9
10
2
7

> <PUBCHEM_MMFF94_PARTIAL_CHARGES>
5
1 -0.43
13 0.66
14 0.06
2 -0.57
4 0.28

> <PUBCHEM_EFFECTIVE_ROTOR_COUNT>
4.2

> <PUBCHEM_PHARMACOPHORE_FEATURES>
3
1 2 acceptor
3 9 11 12 hydrophobe
6 3 4 5 6 7 8 rings

> <PUBCHEM_HEAVY_ATOM_COUNT>
14

> <PUBCHEM_ATOM_DEF_STEREO_COUNT>
3

> <PUBCHEM_ATOM_UDEF_STEREO_COUNT>
0

> <PUBCHEM_BOND_DEF_STEREO_COUNT>
0

> <PUBCHEM_BOND_UDEF_STEREO_COUNT>
0

> <PUBCHEM_ISOTOPIC_ATOM_COUNT>
0

> <PUBCHEM_COMPONENT_COUNT>
1

> <PUBCHEM_CACTVS_TAUTO_COUNT>
1

> <PUBCHEM_CONFORMER_ID>
00035E0200000001

> <PUBCHEM_MMFF94_ENERGY>
29.1729

> <PUBCHEM_FEATURE_SELFOVERLAP>
15.223

> <PUBCHEM_SHAPE_FINGERPRINT>
1 1 17041192438280887628
10989021 7 18267586999085006106
11357001 24 18335698278403186386
11680986 33 18339634672228820601
12553582 1 18339083820861116582
13140716 1 18410572890087986304
13380535 76 17398950479512948145
13538477 17 18115312172401089770
15042514 8 18264492788939567163
15490181 8 17472140579053655169
15669948 3 18337392634928358182
16945 1 18264215698918483768
19021347 4 17832987139678206425
193761 8 18266462190511748497
19868273 325 18410016549999432446
20510252 161 17982444902257055448
20645476 183 17752224798088192310
20645477 70 17691688209526412175
20871998 184 18343585105442546695
21296965 67 18338797930673369259
21524375 3 17692241941956945193
21650355 55 18336249181305443962
21731228 192 17691400811424972192
220403 375 17618496584627320439
2334 1 18266458883112260184
23388829 49 17766825500751041696
23402539 116 18198604567677373501
23419403 2 17123896968709793497
23552423 10 17835241521062797943
23557571 272 18343587339447714356
23559900 14 18055916482056513926
23598291 2 17554342684335181103
23598294 1 18409173190458833274
257057 1 18266442373184101822
2748010 2 18340760545911983733
305870 269 17402614546398995737
3071541 250 18122080946037885623
6338986 31 18198041767673754766
7364860 26 17837220633265677569
81228 2 18340764849447927177

> <PUBCHEM_SHAPE_MULTIPOLES>
276.37
4.21
3.68
0.99
2.47
3.67
-0.2
-3.67
0.55
-0.81
0.05
0.02
-0.51
-0.27

> <PUBCHEM_SHAPE_SELFOVERLAP>
541.605

> <PUBCHEM_SHAPE_VOLUME>
165.8

> <PUBCHEM_COORDINATE_TYPE>
2
5
10

$$$$
