22082179
  -OEChem-11232109103D

 43 44  0     1  0  0  0  0  0999 V2000
   -0.8679    0.1716   -0.2887 O   0  0  0  0  0  0  0  0  0  0  0  0
   -2.0650    0.5402    1.6485 O   0  0  0  0  0  0  0  0  0  0  0  0
    1.4433   -0.7148   -0.2370 C   0  0  1  0  0  0  0  0  0  0  0  0
    2.7502   -0.1495    0.3976 C   0  0  0  0  0  0  0  0  0  0  0  0
    2.3984    1.2892   -0.0664 C   0  0  2  0  0  0  0  0  0  0  0  0
    0.3399    0.1442    0.4518 C   0  0  1  0  0  0  0  0  0  0  0  0
    1.5520   -0.2507   -1.7171 C   0  0  0  0  0  0  0  0  0  0  0  0
    0.9927    1.5366    0.5323 C   0  0  0  0  0  0  0  0  0  0  0  0
    2.2006    1.1383   -1.5914 C   0  0  0  0  0  0  0  0  0  0  0  0
    1.2023   -2.2074   -0.1112 C   0  0  0  0  0  0  0  0  0  0  0  0
    2.8662   -0.3064    1.9275 C   0  0  0  0  0  0  0  0  0  0  0  0
    4.0677   -0.6958   -0.1877 C   0  0  0  0  0  0  0  0  0  0  0  0
   -2.0137    0.3801    0.4358 C   0  0  0  0  0  0  0  0  0  0  0  0
   -3.2238    0.3542   -0.4823 C   0  0  1  0  0  0  0  0  0  0  0  0
   -4.1871   -0.7826   -0.1114 C   0  0  0  0  0  0  0  0  0  0  0  0
   -3.9218    1.7087   -0.3957 C   0  0  0  0  0  0  0  0  0  0  0  0
   -3.5341   -2.1558   -0.2047 C   0  0  0  0  0  0  0  0  0  0  0  0
    3.1222    2.0631    0.2000 H   0  0  0  0  0  0  0  0  0  0  0  0
    0.1530   -0.2519    1.4575 H   0  0  0  0  0  0  0  0  0  0  0  0
    2.1849   -0.9194   -2.3112 H   0  0  0  0  0  0  0  0  0  0  0  0
    0.5845   -0.1993   -2.2266 H   0  0  0  0  0  0  0  0  0  0  0  0
    0.4333    2.3040   -0.0134 H   0  0  0  0  0  0  0  0  0  0  0  0
    1.0698    1.8651    1.5744 H   0  0  0  0  0  0  0  0  0  0  0  0
    1.5632    1.9233   -2.0115 H   0  0  0  0  0  0  0  0  0  0  0  0
    3.1561    1.1716   -2.1253 H   0  0  0  0  0  0  0  0  0  0  0  0
    2.0070   -2.7822   -0.5808 H   0  0  0  0  0  0  0  0  0  0  0  0
    1.1407   -2.5142    0.9378 H   0  0  0  0  0  0  0  0  0  0  0  0
    0.2627   -2.4933   -0.5964 H   0  0  0  0  0  0  0  0  0  0  0  0
    2.0077    0.0584    2.4943 H   0  0  0  0  0  0  0  0  0  0  0  0
    2.9997   -1.3599    2.1983 H   0  0  0  0  0  0  0  0  0  0  0  0
    3.7382    0.2444    2.2996 H   0  0  0  0  0  0  0  0  0  0  0  0
    4.2225   -1.7375    0.1157 H   0  0  0  0  0  0  0  0  0  0  0  0
    4.1225   -0.6764   -1.2781 H   0  0  0  0  0  0  0  0  0  0  0  0
    4.9192   -0.1118    0.1807 H   0  0  0  0  0  0  0  0  0  0  0  0
   -2.8834    0.2089   -1.5155 H   0  0  0  0  0  0  0  0  0  0  0  0
   -5.0556   -0.7575   -0.7804 H   0  0  0  0  0  0  0  0  0  0  0  0
   -4.5641   -0.6428    0.9092 H   0  0  0  0  0  0  0  0  0  0  0  0
   -4.2991    1.9026    0.6146 H   0  0  0  0  0  0  0  0  0  0  0  0
   -3.2301    2.5194   -0.6500 H   0  0  0  0  0  0  0  0  0  0  0  0
   -4.7678    1.7557   -1.0892 H   0  0  0  0  0  0  0  0  0  0  0  0
   -4.2719   -2.9370    0.0043 H   0  0  0  0  0  0  0  0  0  0  0  0
   -3.1309   -2.3304   -1.2073 H   0  0  0  0  0  0  0  0  0  0  0  0
   -2.7202   -2.2652    0.5186 H   0  0  0  0  0  0  0  0  0  0  0  0
  1  6  1  0  0  0  0
  1 13  1  0  0  0  0
  2 13  2  0  0  0  0
  3  4  1  0  0  0  0
  3  6  1  0  0  0  0
  3  7  1  0  0  0  0
  3 10  1  0  0  0  0
  4  5  1  0  0  0  0
  4 11  1  0  0  0  0
  4 12  1  0  0  0  0
  5  8  1  0  0  0  0
  5  9  1  0  0  0  0
  5 18  1  0  0  0  0
  6  8  1  0  0  0  0
  6 19  1  0  0  0  0
  7  9  1  0  0  0  0
  7 20  1  0  0  0  0
  7 21  1  0  0  0  0
  8 22  1  0  0  0  0
  8 23  1  0  0  0  0
  9 24  1  0  0  0  0
  9 25  1  0  0  0  0
 10 26  1  0  0  0  0
 10 27  1  0  0  0  0
 10 28  1  0  0  0  0
 11 29  1  0  0  0  0
 11 30  1  0  0  0  0
 11 31  1  0  0  0  0
 12 32  1  0  0  0  0
 12 33  1  0  0  0  0
 12 34  1  0  0  0  0
 13 14  1  0  0  0  0
 14 15  1  0  0  0  0
 14 16  1  0  0  0  0
 14 35  1  0  0  0  0
 15 17  1  0  0  0  0
 15 36  1  0  0  0  0
 15 37  1  0  0  0  0
 16 38  1  0  0  0  0
 16 39  1  0  0  0  0
 16 40  1  0  0  0  0
 17 41  1  0  0  0  0
 17 42  1  0  0  0  0
 17 43  1  0  0  0  0
M  END
> <PUBCHEM_COMPOUND_CID>
22082179

> <PUBCHEM_CONFORMER_RMSD>
0.6

> <PUBCHEM_CONFORMER_DIVERSEORDER>
1
52
135
21
152
126
139
107
115
105
153
102
65
174
170
37
147
150
25
176
128
66
118
157
134
88
101
35
82
108
64
58
38
97
100
32
138
27
177
109
175
99
144
15
84
133
168
29
141
22
146
154
142
23
60
169
36
156
104
129
51
55
43
46
122
62
114
28
18
24
171
162
143
75
33
116
165
164
103
40
161
90
172
14
112
13
127
166
158
87
83
44
106
167
123
59
92
151
67
96
111
173
73
10
30
85
124
3
120
26
42
132
148
63
91
137
86
140
50
159
31
49
98
34
79
93
110
113
19
145
131
94
16
89
76
20
11
119
149
2
160
117
47
7
45
121
48
53
80
61
5
54
9
155
77
130
17
57
12
125
95
68
78
56
8
41
71
70
163
81
136
74
4
72
39
69
6

> <PUBCHEM_MMFF94_PARTIAL_CHARGES>
5
1 -0.43
13 0.66
14 0.06
2 -0.57
6 0.28

> <PUBCHEM_EFFECTIVE_ROTOR_COUNT>
5

> <PUBCHEM_PHARMACOPHORE_FEATURES>
5
1 16 hydrophobe
1 17 hydrophobe
1 2 acceptor
3 4 11 12 hydrophobe
7 3 4 5 6 7 8 9 rings

> <PUBCHEM_HEAVY_ATOM_COUNT>
17

> <PUBCHEM_ATOM_DEF_STEREO_COUNT>
0

> <PUBCHEM_ATOM_UDEF_STEREO_COUNT>
4

> <PUBCHEM_BOND_DEF_STEREO_COUNT>
0

> <PUBCHEM_BOND_UDEF_STEREO_COUNT>
0

> <PUBCHEM_ISOTOPIC_ATOM_COUNT>
0

> <PUBCHEM_COMPONENT_COUNT>
1

> <PUBCHEM_CACTVS_TAUTO_COUNT>
1

> <PUBCHEM_CONFORMER_ID>
0150F28300000001

> <PUBCHEM_MMFF94_ENERGY>
60.9974

> <PUBCHEM_FEATURE_SELFOVERLAP>
25.373

> <PUBCHEM_SHAPE_FINGERPRINT>
12500047 106 18338228268113007525
12932764 1 18336840748778997393
13134695 92 16660358178097887406
13224815 77 17275105059130698875
13296908 3 17632863027300387989
13705890 14 18131636694315636876
14178342 30 18130230363267438019
14252887 29 16702028607759705911
15375358 24 17274813641394466181
16945 1 18339350869574598432
18186145 218 18060146414197438793
200 152 17917424333303127039
20279233 1 17132112438130419701
20645477 56 18335700482570858389
20645477 70 14779535756266267992
21069387 34 17168134646400792883
21730867 7 18342454803267916246
221490 88 18339084920314189459
2255824 54 17458345264595331866
22892500 29 16153702171804197054
23402539 116 17240476983727073516
23402655 69 17894908499529371573
23557571 272 18131069286381802337
23559900 14 18271523083578238094
2871803 45 18339635767683033399
3082319 5 18186804703409094749
3286 77 18334848467736850877
74978 22 15647060386468782145
81228 2 17345204302685312729
9709674 26 18411420613964925647

> <PUBCHEM_SHAPE_MULTIPOLES>
338.11
7.51
1.83
1.37
5.93
0.52
0.11
0.72
-0.14
0.84
-0.21
-0.93
-0.16
-0.28

> <PUBCHEM_SHAPE_SELFOVERLAP>
696.276

> <PUBCHEM_SHAPE_VOLUME>
201.3

> <PUBCHEM_COORDINATE_TYPE>
2
5
10

$$$$
