221417
  -OEChem-11232108433D

 39 39  0     0  0  0  0  0  0999 V2000
   -0.9843    0.1518    0.0752 O   0  0  0  0  0  0  0  0  0  0  0  0
   -2.4287    1.9396   -0.1202 O   0  0  0  0  0  0  0  0  0  0  0  0
   -4.6989    0.2209   -0.0188 C   0  0  0  0  0  0  0  0  0  0  0  0
   -5.7634   -0.8741    0.1002 C   0  0  0  0  0  0  0  0  0  0  0  0
   -3.2790   -0.3263    0.1256 C   0  0  0  0  0  0  0  0  0  0  0  0
   -7.1693   -0.3014   -0.0821 C   0  0  0  0  0  0  0  0  0  0  0  0
    1.4173    0.2273    0.0367 C   0  0  0  0  0  0  0  0  0  0  0  0
    2.6531    1.1193   -0.0693 C   0  0  0  0  0  0  0  0  0  0  0  0
    0.1322    1.0392   -0.0444 C   0  0  0  0  0  0  0  0  0  0  0  0
    3.9266    0.3138   -0.0344 C   0  0  0  0  0  0  0  0  0  0  0  0
   -2.2144    0.7432    0.0198 C   0  0  0  0  0  0  0  0  0  0  0  0
   -8.2282   -1.3900   -0.0099 C   0  0  0  0  0  0  0  0  0  0  0  0
    4.5329    0.0497    1.1850 C   0  0  0  0  0  0  0  0  0  0  0  0
    4.4721   -0.1512   -1.2220 C   0  0  0  0  0  0  0  0  0  0  0  0
    5.7113   -0.6958    1.2175 C   0  0  0  0  0  0  0  0  0  0  0  0
    5.6506   -0.8969   -1.1893 C   0  0  0  0  0  0  0  0  0  0  0  0
    6.2701   -1.1691    0.0304 C   0  0  0  0  0  0  0  0  0  0  0  0
   -4.7959    0.7240   -0.9892 H   0  0  0  0  0  0  0  0  0  0  0  0
   -4.8751    0.9866    0.7473 H   0  0  0  0  0  0  0  0  0  0  0  0
   -5.6852   -1.3585    1.0809 H   0  0  0  0  0  0  0  0  0  0  0  0
   -5.5793   -1.6452   -0.6577 H   0  0  0  0  0  0  0  0  0  0  0  0
   -3.0952   -1.0668   -0.6613 H   0  0  0  0  0  0  0  0  0  0  0  0
   -3.1710   -0.8133    1.1014 H   0  0  0  0  0  0  0  0  0  0  0  0
   -7.3687    0.4487    0.6920 H   0  0  0  0  0  0  0  0  0  0  0  0
   -7.2428    0.2051   -1.0515 H   0  0  0  0  0  0  0  0  0  0  0  0
    1.4312   -0.3394    0.9768 H   0  0  0  0  0  0  0  0  0  0  0  0
    1.4166   -0.5285   -0.7596 H   0  0  0  0  0  0  0  0  0  0  0  0
    2.6593    1.8538    0.7464 H   0  0  0  0  0  0  0  0  0  0  0  0
    2.6172    1.7055   -0.9967 H   0  0  0  0  0  0  0  0  0  0  0  0
    0.0768    1.5623   -1.0063 H   0  0  0  0  0  0  0  0  0  0  0  0
    0.0985    1.7731    0.7694 H   0  0  0  0  0  0  0  0  0  0  0  0
   -8.0761   -2.1381   -0.7945 H   0  0  0  0  0  0  0  0  0  0  0  0
   -8.2025   -1.8981    0.9594 H   0  0  0  0  0  0  0  0  0  0  0  0
   -9.2253   -0.9582   -0.1410 H   0  0  0  0  0  0  0  0  0  0  0  0
    4.1043    0.4121    2.1151 H   0  0  0  0  0  0  0  0  0  0  0  0
    3.9962    0.0538   -2.1767 H   0  0  0  0  0  0  0  0  0  0  0  0
    6.1935   -0.9085    2.1671 H   0  0  0  0  0  0  0  0  0  0  0  0
    6.0855   -1.2660   -2.1135 H   0  0  0  0  0  0  0  0  0  0  0  0
    7.1875   -1.7500    0.0558 H   0  0  0  0  0  0  0  0  0  0  0  0
  1  9  1  0  0  0  0
  1 11  1  0  0  0  0
  2 11  2  0  0  0  0
  3  4  1  0  0  0  0
  3  5  1  0  0  0  0
  3 18  1  0  0  0  0
  3 19  1  0  0  0  0
  4  6  1  0  0  0  0
  4 20  1  0  0  0  0
  4 21  1  0  0  0  0
  5 11  1  0  0  0  0
  5 22  1  0  0  0  0
  5 23  1  0  0  0  0
  6 12  1  0  0  0  0
  6 24  1  0  0  0  0
  6 25  1  0  0  0  0
  7  8  1  0  0  0  0
  7  9  1  0  0  0  0
  7 26  1  0  0  0  0
  7 27  1  0  0  0  0
  8 10  1  0  0  0  0
  8 28  1  0  0  0  0
  8 29  1  0  0  0  0
  9 30  1  0  0  0  0
  9 31  1  0  0  0  0
 10 13  2  0  0  0  0
 10 14  1  0  0  0  0
 12 32  1  0  0  0  0
 12 33  1  0  0  0  0
 12 34  1  0  0  0  0
 13 15  1  0  0  0  0
 13 35  1  0  0  0  0
 14 16  2  0  0  0  0
 14 36  1  0  0  0  0
 15 17  2  0  0  0  0
 15 37  1  0  0  0  0
 16 17  1  0  0  0  0
 16 38  1  0  0  0  0
 17 39  1  0  0  0  0
M  END
> <PUBCHEM_COMPOUND_CID>
221417

> <PUBCHEM_CONFORMER_RMSD>
1

> <PUBCHEM_CONFORMER_DIVERSEORDER>
1
131
118
125
138
56
18
31
104
22
159
46
65
137
73
20
114
29
95
156
124
24
9
27
82
19
144
160
10
106
97
37
42
136
75
152
38
142
12
143
89
148
7
53
135
66
149
105
116
14
3
93
26
98
48
76
146
70
57
81
111
141
92
17
30
130
163
133
54
117
28
94
35
63
123
154
64
158
91
11
134
103
88
33
96
43
84
4
5
2
126
25
157
61
13
6
55
129
112
87
41
50
47
32
161
100
113
164
101
60
147
68
16
45
51
150
71
44
59
15
23
74
77
85
72
40
162
21
52
127
69
132
36
8
58
120
107
102
115
79
128
151
49
86
109
145
153
80
99
78
121
90
140
119
83
39
122
34
155
67
110
62
108
139

> <PUBCHEM_MMFF94_PARTIAL_CHARGES>
17
1 -0.43
10 -0.14
11 0.66
13 -0.15
14 -0.15
15 -0.15
16 -0.15
17 -0.15
2 -0.57
35 0.15
36 0.15
37 0.15
38 0.15
39 0.15
5 0.06
8 0.14
9 0.28

> <PUBCHEM_EFFECTIVE_ROTOR_COUNT>
9

> <PUBCHEM_PHARMACOPHORE_FEATURES>
4
1 12 hydrophobe
1 2 acceptor
4 3 4 5 6 hydrophobe
6 10 13 14 15 16 17 rings

> <PUBCHEM_HEAVY_ATOM_COUNT>
17

> <PUBCHEM_ATOM_DEF_STEREO_COUNT>
0

> <PUBCHEM_ATOM_UDEF_STEREO_COUNT>
0

> <PUBCHEM_BOND_DEF_STEREO_COUNT>
0

> <PUBCHEM_BOND_UDEF_STEREO_COUNT>
0

> <PUBCHEM_ISOTOPIC_ATOM_COUNT>
0

> <PUBCHEM_COMPONENT_COUNT>
1

> <PUBCHEM_CACTVS_TAUTO_COUNT>
1

> <PUBCHEM_CONFORMER_ID>
000360E900000001

> <PUBCHEM_MMFF94_ENERGY>
20.183

> <PUBCHEM_FEATURE_SELFOVERLAP>
20.297

> <PUBCHEM_SHAPE_FINGERPRINT>
10 15 13758354492389149075
10354089 29 14405182876900903592
106641 1 18343576357643580880
10688039 33 16487257647384702128
11524674 6 17775004613917742111
11638347 137 15985110703916769327
117890 112 9655577409097169137
12166972 35 17676490561985290861
125118 31 12103577376737267859
13668630 136 18333450932528628471
13685833 64 18343584053386308841
13862211 1 18408603673763796491
13885169 127 18273216362203957529
1420 363 18272089396379918575
14251752 14 17748819705715006197
14251764 18 18273498991566690448
14251764 46 16587740945336431875
14729087 3 10375878459618513187
15048467 5 9583519815307024643
15183329 4 16008743598438698973
15188451 53 18341891883326512120
15348495 7 16916777539374264723
15690457 1 18410851070693197587
15716309 27 17561081423813749661
18222031 100 17967534579828692636
20281389 69 10807942552541786651
20397935 70 16558758892918201822
20526848 3 9727637219823648419
20621476 38 18341614784995666774
20621476 8 18333731304843287357
20735858 18 16988563511412024111
21130983 4 10303815389011739187
21150785 3 16732987539340662014
21267235 1 18411985753823620925
221357 26 14996280318986784694
22224240 67 15410894068210274677
22956985 138 17977103458033341542
23035841 295 18335139804660060603
23198884 109 15140959548407142373
23559900 14 17968660561524640441
246663 6 18272094898111932951
28498 318 18408882924200694495
29717793 49 17167864141049870798
3004659 81 18113620105283319100
33532 11 18411699868063748975
351380 3 18333166163390869794
4340502 62 15482674576079436460
465052 167 18410015438119926110
5758199 1 9151180866136299141
59682541 35 17917987313110634986
59682541 52 13840254867464400136
59755656 215 18260830380190256155
6025842 7 13045930297033134448
6438161 24 17240754074159392906

> <PUBCHEM_SHAPE_MULTIPOLES>
338.11
22.75
1.3
0.96
28.37
0.17
0
-11.98
-0.18
0.49
0.05
-1.78
-0.15
0.18

> <PUBCHEM_SHAPE_SELFOVERLAP>
665.576

> <PUBCHEM_SHAPE_VOLUME>
202.1

> <PUBCHEM_COORDINATE_TYPE>
2
5
10

$$$$
