221641
  -OEChem-11232109463D

 27 27  0     0  0  0  0  0  0999 V2000
    2.1412    0.0229   -0.5432 O   0  0  0  0  0  0  0  0  0  0  0  0
    0.6790   -0.1179    1.2352 O   0  0  0  0  0  0  0  0  0  0  0  0
   -0.1579    0.0165   -1.0454 C   0  0  0  0  0  0  0  0  0  0  0  0
    4.5405    0.0554   -0.4354 C   0  0  0  0  0  0  0  0  0  0  0  0
   -1.5506    0.0144   -0.5112 C   0  0  0  0  0  0  0  0  0  0  0  0
    3.2481   -0.0183    0.3631 C   0  0  0  0  0  0  0  0  0  0  0  0
    0.9043   -0.0355    0.0354 C   0  0  0  0  0  0  0  0  0  0  0  0
    5.7633    0.0015    0.4627 C   0  0  0  0  0  0  0  0  0  0  0  0
   -2.2169   -1.1936   -0.3051 C   0  0  0  0  0  0  0  0  0  0  0  0
   -2.1868    1.2206   -0.2181 C   0  0  0  0  0  0  0  0  0  0  0  0
   -3.5194   -1.1955    0.1940 C   0  0  0  0  0  0  0  0  0  0  0  0
   -3.4893    1.2188    0.2811 C   0  0  0  0  0  0  0  0  0  0  0  0
   -4.1555    0.0106    0.4871 C   0  0  0  0  0  0  0  0  0  0  0  0
   -0.0131   -0.8444   -1.7096 H   0  0  0  0  0  0  0  0  0  0  0  0
    0.0057    0.9202   -1.6454 H   0  0  0  0  0  0  0  0  0  0  0  0
    4.5735   -0.7683   -1.1586 H   0  0  0  0  0  0  0  0  0  0  0  0
    4.5539    0.9774   -1.0288 H   0  0  0  0  0  0  0  0  0  0  0  0
    3.2112   -0.9528    0.9354 H   0  0  0  0  0  0  0  0  0  0  0  0
    3.1824    0.8310    1.0533 H   0  0  0  0  0  0  0  0  0  0  0  0
    5.7888   -0.9311    1.0353 H   0  0  0  0  0  0  0  0  0  0  0  0
    6.6772    0.0569   -0.1369 H   0  0  0  0  0  0  0  0  0  0  0  0
    5.7690    0.8384    1.1683 H   0  0  0  0  0  0  0  0  0  0  0  0
   -1.7316   -2.1402   -0.5276 H   0  0  0  0  0  0  0  0  0  0  0  0
   -1.6781    2.1686   -0.3722 H   0  0  0  0  0  0  0  0  0  0  0  0
   -4.0380   -2.1361    0.3550 H   0  0  0  0  0  0  0  0  0  0  0  0
   -3.9847    2.1578    0.5100 H   0  0  0  0  0  0  0  0  0  0  0  0
   -5.1696    0.0092    0.8761 H   0  0  0  0  0  0  0  0  0  0  0  0
  1  6  1  0  0  0  0
  1  7  1  0  0  0  0
  2  7  2  0  0  0  0
  3  5  1  0  0  0  0
  3  7  1  0  0  0  0
  3 14  1  0  0  0  0
  3 15  1  0  0  0  0
  4  6  1  0  0  0  0
  4  8  1  0  0  0  0
  4 16  1  0  0  0  0
  4 17  1  0  0  0  0
  5  9  2  0  0  0  0
  5 10  1  0  0  0  0
  6 18  1  0  0  0  0
  6 19  1  0  0  0  0
  8 20  1  0  0  0  0
  8 21  1  0  0  0  0
  8 22  1  0  0  0  0
  9 11  1  0  0  0  0
  9 23  1  0  0  0  0
 10 12  2  0  0  0  0
 10 24  1  0  0  0  0
 11 13  2  0  0  0  0
 11 25  1  0  0  0  0
 12 13  1  0  0  0  0
 12 26  1  0  0  0  0
 13 27  1  0  0  0  0
M  END
> <PUBCHEM_COMPOUND_CID>
221641

> <PUBCHEM_CONFORMER_RMSD>
0.6

> <PUBCHEM_CONFORMER_DIVERSEORDER>
1
24
63
61
29
55
21
89
40
97
68
69
72
70
75
17
67
87
50
76
85
74
7
52
73
32
3
95
71
47
58
88
65
43
39
2
53
48
42
93
22
49
56
11
81
44
51
26
34
91
27
82
20
99
45
25
77
98
23
84
13
9
35
66
10
54
12
14
57
37
6
59
96
5
4
36
16
79
8
38
33
18
46
86
78
15
80
19
94
30
83
90
100
31
64
60
92
28
41
62

> <PUBCHEM_MMFF94_PARTIAL_CHARGES>
16
1 -0.43
10 -0.15
11 -0.15
12 -0.15
13 -0.15
2 -0.57
23 0.15
24 0.15
25 0.15
26 0.15
27 0.15
3 0.2
5 -0.14
6 0.28
7 0.66
9 -0.15

> <PUBCHEM_EFFECTIVE_ROTOR_COUNT>
5

> <PUBCHEM_PHARMACOPHORE_FEATURES>
3
1 2 acceptor
1 8 hydrophobe
6 5 9 10 11 12 13 rings

> <PUBCHEM_HEAVY_ATOM_COUNT>
13

> <PUBCHEM_ATOM_DEF_STEREO_COUNT>
0

> <PUBCHEM_ATOM_UDEF_STEREO_COUNT>
0

> <PUBCHEM_BOND_DEF_STEREO_COUNT>
0

> <PUBCHEM_BOND_UDEF_STEREO_COUNT>
0

> <PUBCHEM_ISOTOPIC_ATOM_COUNT>
0

> <PUBCHEM_COMPONENT_COUNT>
1

> <PUBCHEM_CACTVS_TAUTO_COUNT>
1

> <PUBCHEM_CONFORMER_ID>
000361C900000001

> <PUBCHEM_MMFF94_ENERGY>
19.3357

> <PUBCHEM_FEATURE_SELFOVERLAP>
15.223

> <PUBCHEM_SHAPE_FINGERPRINT>
10680689 15 17775564260312616966
12251169 10 18409169917709305077
124424 183 17203326714938890171
13214271 11 18202562874014786453
13675066 3 17632294592768649270
13690532 89 15357694189373260598
14123238 8 18410856568741375214
14251718 22 8646763400902054720
15219456 202 17917159294844674143
17834076 25 13830132793546901876
200 152 15502371244632942303
20279233 1 17489875933458762711
20645464 45 17703796920618207359
20645477 56 18131350804001867124
20645477 70 16199878259015432236
20828058 44 18408604764384919718
2297311 6 18270976686338955628
23402539 116 18187359943521725430
42 15 18408604751726832230
42788 4 18272369780867478628
77779 3 18411420609532100158

> <PUBCHEM_SHAPE_MULTIPOLES>
255.8
10.47
1.07
0.9
13.47
0.02
0.01
0.11
1.7
-1.33
0
0.11
-0.01
-0.04

> <PUBCHEM_SHAPE_SELFOVERLAP>
514.116

> <PUBCHEM_SHAPE_VOLUME>
150.2

> <PUBCHEM_COORDINATE_TYPE>
2
5
10

$$$$
