221668
  -OEChem-11232109223D

 38 38  0     1  0  0  0  0  0999 V2000
   -0.3035    0.9041    0.2976 O   0  0  0  0  0  0  0  0  0  0  0  0
   -1.5503   -1.1210    0.0223 O   0  0  0  0  0  0  0  0  0  0  0  0
    0.8968   -1.2132    0.0317 C   0  0  0  0  0  0  0  0  0  0  0  0
    0.8859    0.3147   -0.2414 C   0  0  2  0  0  0  0  0  0  0  0  0
    2.0632    1.0857    0.3516 C   0  0  0  0  0  0  0  0  0  0  0  0
   -0.4195   -1.7926   -0.5267 C   0  0  0  0  0  0  0  0  0  0  0  0
   -1.5167    0.2984   -0.1639 C   0  0  1  0  0  0  0  0  0  0  0  0
    0.9710   -1.5192    1.5424 C   0  0  0  0  0  0  0  0  0  0  0  0
    2.0790   -1.8975   -0.6729 C   0  0  0  0  0  0  0  0  0  0  0  0
   -2.6232    0.8584    0.7347 C   0  0  0  0  0  0  0  0  0  0  0  0
    3.3855    0.5438   -0.1866 C   0  0  0  0  0  0  0  0  0  0  0  0
    1.9329    2.5776    0.0532 C   0  0  0  0  0  0  0  0  0  0  0  0
   -1.8282    0.6867   -1.6140 C   0  0  0  0  0  0  0  0  0  0  0  0
   -3.9730    0.2743    0.3720 C   0  0  0  0  0  0  0  0  0  0  0  0
    0.8895    0.4856   -1.3254 H   0  0  0  0  0  0  0  0  0  0  0  0
    2.0623    1.0005    1.4452 H   0  0  0  0  0  0  0  0  0  0  0  0
   -0.4546   -1.7263   -1.6205 H   0  0  0  0  0  0  0  0  0  0  0  0
   -0.5182   -2.8545   -0.2740 H   0  0  0  0  0  0  0  0  0  0  0  0
    1.9288   -1.2133    1.9752 H   0  0  0  0  0  0  0  0  0  0  0  0
    0.1765   -1.0141    2.1018 H   0  0  0  0  0  0  0  0  0  0  0  0
    0.8688   -2.5954    1.7254 H   0  0  0  0  0  0  0  0  0  0  0  0
    1.8270   -2.9526   -0.8516 H   0  0  0  0  0  0  0  0  0  0  0  0
    2.2759   -1.4818   -1.6654 H   0  0  0  0  0  0  0  0  0  0  0  0
    2.9908   -1.9590   -0.0797 H   0  0  0  0  0  0  0  0  0  0  0  0
   -2.6534    1.9537    0.6862 H   0  0  0  0  0  0  0  0  0  0  0  0
   -2.4026    0.6055    1.7802 H   0  0  0  0  0  0  0  0  0  0  0  0
    3.3607    0.3113   -1.2538 H   0  0  0  0  0  0  0  0  0  0  0  0
    4.1622    1.3132   -0.0789 H   0  0  0  0  0  0  0  0  0  0  0  0
    3.7671   -0.2814    0.4142 H   0  0  0  0  0  0  0  0  0  0  0  0
    1.9037    2.7658   -1.0257 H   0  0  0  0  0  0  0  0  0  0  0  0
    2.7822    3.1327    0.4667 H   0  0  0  0  0  0  0  0  0  0  0  0
    1.0270    3.0033    0.4969 H   0  0  0  0  0  0  0  0  0  0  0  0
   -1.0090    0.4259   -2.2908 H   0  0  0  0  0  0  0  0  0  0  0  0
   -2.7052    0.1624   -2.0056 H   0  0  0  0  0  0  0  0  0  0  0  0
   -1.9708    1.7683   -1.7129 H   0  0  0  0  0  0  0  0  0  0  0  0
   -4.3310    0.6290   -0.5987 H   0  0  0  0  0  0  0  0  0  0  0  0
   -3.9749   -0.8197    0.3696 H   0  0  0  0  0  0  0  0  0  0  0  0
   -4.7155    0.5939    1.1120 H   0  0  0  0  0  0  0  0  0  0  0  0
  1  4  1  0  0  0  0
  1  7  1  0  0  0  0
  2  6  1  0  0  0  0
  2  7  1  0  0  0  0
  3  4  1  0  0  0  0
  3  6  1  0  0  0  0
  3  8  1  0  0  0  0
  3  9  1  0  0  0  0
  4  5  1  0  0  0  0
  4 15  1  0  0  0  0
  5 11  1  0  0  0  0
  5 12  1  0  0  0  0
  5 16  1  0  0  0  0
  6 17  1  0  0  0  0
  6 18  1  0  0  0  0
  7 10  1  0  0  0  0
  7 13  1  0  0  0  0
  8 19  1  0  0  0  0
  8 20  1  0  0  0  0
  8 21  1  0  0  0  0
  9 22  1  0  0  0  0
  9 23  1  0  0  0  0
  9 24  1  0  0  0  0
 10 14  1  0  0  0  0
 10 25  1  0  0  0  0
 10 26  1  0  0  0  0
 11 27  1  0  0  0  0
 11 28  1  0  0  0  0
 11 29  1  0  0  0  0
 12 30  1  0  0  0  0
 12 31  1  0  0  0  0
 12 32  1  0  0  0  0
 13 33  1  0  0  0  0
 13 34  1  0  0  0  0
 13 35  1  0  0  0  0
 14 36  1  0  0  0  0
 14 37  1  0  0  0  0
 14 38  1  0  0  0  0
M  END
> <PUBCHEM_COMPOUND_CID>
221668

> <PUBCHEM_CONFORMER_RMSD>
0.6

> <PUBCHEM_CONFORMER_DIVERSEORDER>
3
5
2
6
4
1

> <PUBCHEM_MMFF94_PARTIAL_CHARGES>
5
1 -0.56
2 -0.56
4 0.28
6 0.28
7 0.56

> <PUBCHEM_EFFECTIVE_ROTOR_COUNT>
3.2

> <PUBCHEM_PHARMACOPHORE_FEATURES>
6
1 1 acceptor
1 14 hydrophobe
1 2 acceptor
3 3 8 9 hydrophobe
3 5 11 12 hydrophobe
6 1 2 3 4 6 7 rings

> <PUBCHEM_HEAVY_ATOM_COUNT>
14

> <PUBCHEM_ATOM_DEF_STEREO_COUNT>
0

> <PUBCHEM_ATOM_UDEF_STEREO_COUNT>
2

> <PUBCHEM_BOND_DEF_STEREO_COUNT>
0

> <PUBCHEM_BOND_UDEF_STEREO_COUNT>
0

> <PUBCHEM_ISOTOPIC_ATOM_COUNT>
0

> <PUBCHEM_COMPONENT_COUNT>
1

> <PUBCHEM_CACTVS_TAUTO_COUNT>
1

> <PUBCHEM_CONFORMER_ID>
000361E400000003

> <PUBCHEM_MMFF94_ENERGY>
51.2626

> <PUBCHEM_FEATURE_SELFOVERLAP>
30.479

> <PUBCHEM_SHAPE_FINGERPRINT>
1 1 18411134766484056740
10980938 120 18411986827660410057
11471102 20 18340205198245764357
12326174 3 18262512572745326506
12423570 1 13269510445748299826
12491281 212 18271537475812823322
12808571 1 18060424581943881983
13380535 21 18411146860837902431
13380535 76 18412263968883399555
13538477 17 17489575763011664829
15219456 202 18041837303638065773
15775835 57 18334296512989449436
161256 15 18262522472470747060
16945 1 18412257342049275908
170605 34 18409732880331298441
17844478 74 17968104083833382389
18186145 218 18341610468822585652
20645477 70 18339075983199208231
20653085 51 18197789992733064224
21041028 32 18125726681946206200
21501502 16 18340203097912135838
21524375 3 18264201598767749744
21730867 7 18335140869178901677
22344851 341 18335702771055139490
23235685 24 18342172280171505249
2334 1 17978505665606143244
23419403 2 16961046029640335826
23557571 272 17095239220787579485
25 1 18410578405068710588
2748010 2 18050837824081563356
31174 14 18260548870995673185
430814 3 18270680981908720185
5084963 1 18043804493006372420
528862 383 18409727331344308785
528886 8 18202002127152708402
53812653 166 18412828005800936088
63268167 104 18410575050546063712
7364860 26 18272092660491883406
81228 2 17325480498448509032

> <PUBCHEM_SHAPE_MULTIPOLES>
276.37
4.81
2.22
1.1
2.52
0.13
0.04
1.49
-0.26
-1.57
-0.02
0.24
-0.19
0.05

> <PUBCHEM_SHAPE_SELFOVERLAP>
544.113

> <PUBCHEM_SHAPE_VOLUME>
166.8

> <PUBCHEM_COORDINATE_TYPE>
2
5
10

$$$$
