22182954
  -OEChem-11232109023D

 29 28  0     0  0  0  0  0  0999 V2000
    2.4859    0.5171    0.1476 O   0  0  0  0  0  0  0  0  0  0  0  0
    3.8553   -1.2735   -0.3581 O   0  0  0  0  0  0  0  0  0  0  0  0
   -2.4482    0.6388   -0.0476 C   0  0  0  0  0  0  0  0  0  0  0  0
   -3.7646   -0.1259   -0.2799 C   0  0  0  0  0  0  0  0  0  0  0  0
   -1.1970   -0.2133   -0.2829 C   0  0  0  0  0  0  0  0  0  0  0  0
    0.0778    0.5771    0.0326 C   0  0  0  0  0  0  0  0  0  0  0  0
   -3.8445   -1.3218    0.6722 C   0  0  0  0  0  0  0  0  0  0  0  0
   -4.9969    0.7612   -0.0974 C   0  0  0  0  0  0  0  0  0  0  0  0
    1.3375   -0.2565   -0.1681 C   0  0  0  0  0  0  0  0  0  0  0  0
    3.6899   -0.1179    0.0083 C   0  0  0  0  0  0  0  0  0  0  0  0
    4.8049    0.8146    0.3733 C   0  0  0  0  0  0  0  0  0  0  0  0
   -2.4331    1.0346    0.9761 H   0  0  0  0  0  0  0  0  0  0  0  0
   -2.4181    1.5073   -0.7178 H   0  0  0  0  0  0  0  0  0  0  0  0
   -3.7746   -0.5042   -1.3099 H   0  0  0  0  0  0  0  0  0  0  0  0
   -1.2059   -1.1014    0.3566 H   0  0  0  0  0  0  0  0  0  0  0  0
   -1.1747   -0.5578   -1.3235 H   0  0  0  0  0  0  0  0  0  0  0  0
    0.1323    1.4727   -0.5987 H   0  0  0  0  0  0  0  0  0  0  0  0
    0.0499    0.9418    1.0672 H   0  0  0  0  0  0  0  0  0  0  0  0
   -3.6860   -1.0185    1.7127 H   0  0  0  0  0  0  0  0  0  0  0  0
   -4.8298   -1.7979    0.6104 H   0  0  0  0  0  0  0  0  0  0  0  0
   -3.1119   -2.0935    0.4189 H   0  0  0  0  0  0  0  0  0  0  0  0
   -5.0556    1.1524    0.9239 H   0  0  0  0  0  0  0  0  0  0  0  0
   -5.9161    0.2021   -0.3016 H   0  0  0  0  0  0  0  0  0  0  0  0
   -4.9634    1.6131   -0.7845 H   0  0  0  0  0  0  0  0  0  0  0  0
    1.3055   -1.1384    0.4828 H   0  0  0  0  0  0  0  0  0  0  0  0
    1.3989   -0.5882   -1.2115 H   0  0  0  0  0  0  0  0  0  0  0  0
    4.7957    1.6812   -0.2925 H   0  0  0  0  0  0  0  0  0  0  0  0
    5.7621    0.2978    0.2596 H   0  0  0  0  0  0  0  0  0  0  0  0
    4.6998    1.1278    1.4150 H   0  0  0  0  0  0  0  0  0  0  0  0
  1  9  1  0  0  0  0
  1 10  1  0  0  0  0
  2 10  2  0  0  0  0
  3  4  1  0  0  0  0
  3  5  1  0  0  0  0
  3 12  1  0  0  0  0
  3 13  1  0  0  0  0
  4  7  1  0  0  0  0
  4  8  1  0  0  0  0
  4 14  1  0  0  0  0
  5  6  1  0  0  0  0
  5 15  1  0  0  0  0
  5 16  1  0  0  0  0
  6  9  1  0  0  0  0
  6 17  1  0  0  0  0
  6 18  1  0  0  0  0
  7 19  1  0  0  0  0
  7 20  1  0  0  0  0
  7 21  1  0  0  0  0
  8 22  1  0  0  0  0
  8 23  1  0  0  0  0
  8 24  1  0  0  0  0
  9 25  1  0  0  0  0
  9 26  1  0  0  0  0
 10 11  1  0  0  0  0
 11 27  1  0  0  0  0
 11 28  1  0  0  0  0
 11 29  1  0  0  0  0
M  END
> <PUBCHEM_COMPOUND_CID>
22182954

> <PUBCHEM_CONFORMER_RMSD>
0.6

> <PUBCHEM_CONFORMER_DIVERSEORDER>
1
45
28
89
57
93
12
99
78
10
86
81
46
4
109
41
2
40
108
23
42
6
61
43
105
9
79
66
111
107
92
15
69
63
101
55
17
36
88
39
3
104
51
60
96
71
27
19
97
48
13
14
20
59
64
82
84
22
70
80
56
26
72
65
106
44
54
85
68
91
53
90
98
110
11
87
62
47
32
8
38
5
34
16
100
7
74
18
83
58
50
49
73
37
77
29
94
76
33
103
31
30
52
102
67
95
24
25
21
35
75

> <PUBCHEM_MMFF94_PARTIAL_CHARGES>
5
1 -0.43
10 0.66
11 0.06
2 -0.57
9 0.28

> <PUBCHEM_EFFECTIVE_ROTOR_COUNT>
6

> <PUBCHEM_PHARMACOPHORE_FEATURES>
3
1 2 acceptor
3 4 7 8 hydrophobe
4 3 4 5 6 hydrophobe

> <PUBCHEM_HEAVY_ATOM_COUNT>
11

> <PUBCHEM_ATOM_DEF_STEREO_COUNT>
0

> <PUBCHEM_ATOM_UDEF_STEREO_COUNT>
0

> <PUBCHEM_BOND_DEF_STEREO_COUNT>
0

> <PUBCHEM_BOND_UDEF_STEREO_COUNT>
0

> <PUBCHEM_ISOTOPIC_ATOM_COUNT>
0

> <PUBCHEM_COMPONENT_COUNT>
1

> <PUBCHEM_CACTVS_TAUTO_COUNT>
1

> <PUBCHEM_CONFORMER_ID>
01527C2A00000001

> <PUBCHEM_MMFF94_ENERGY>
7.6964

> <PUBCHEM_FEATURE_SELFOVERLAP>
15.251

> <PUBCHEM_SHAPE_FINGERPRINT>
11062470 55 17989486324817957796
11987891 38 18410014320927483338
14123238 8 15698280018725108469
14252887 29 17988651783098216910
15242439 84 18410291398121180205
15501527 16 18337673010794770365
17834072 33 18342174530797685028
17834074 16 18409169908861316699
17834076 25 18272650147299703665
18342897 14 18131632291879420921
190213 19 18408323289144412965
20279233 1 18201727245362312487
20645477 70 17988924410242078598
20828058 44 18187364350316394043
22485316 2 18407757036440398763
23402539 116 15357689803958547895
23557571 272 18189058603040055052
42 15 18410856546944843814
42788 4 18342174466362593413
449060 50 18342454885257436188

> <PUBCHEM_SHAPE_MULTIPOLES>
214.64
11.59
1.1
0.68
2.13
0.23
-0.03
-0.41
-0.75
-0.26
-0.07
-0.11
0.05
0.61

> <PUBCHEM_SHAPE_SELFOVERLAP>
389.688

> <PUBCHEM_SHAPE_VOLUME>
138.2

> <PUBCHEM_COORDINATE_TYPE>
2
5
10

$$$$
