22213645
  -OEChem-11232108443D

 24 23  0     1  0  0  0  0  0999 V2000
    2.4467    0.6290   -0.9655 S   0  0  0  0  0  0  0  0  0  0  0  0
   -1.9926   -0.3726   -0.1662 O   0  0  0  0  0  0  0  0  0  0  0  0
   -0.5203    1.2098    0.6392 O   0  0  0  0  0  0  0  0  0  0  0  0
    1.7087   -0.5411    0.2332 C   0  0  1  0  0  0  0  0  0  0  0  0
    0.2866   -0.9332   -0.1867 C   0  0  0  0  0  0  0  0  0  0  0  0
    2.6061   -1.7722    0.3248 C   0  0  0  0  0  0  0  0  0  0  0  0
   -0.7553    0.1157    0.1449 C   0  0  0  0  0  0  0  0  0  0  0  0
   -3.0900    0.4986    0.1250 C   0  0  0  0  0  0  0  0  0  0  0  0
    3.6909    1.3497    0.1260 C   0  0  0  0  0  0  0  0  0  0  0  0
   -4.3809   -0.1838   -0.2746 C   0  0  0  0  0  0  0  0  0  0  0  0
    1.6719   -0.0587    1.2167 H   0  0  0  0  0  0  0  0  0  0  0  0
   -0.0075   -1.8356    0.3650 H   0  0  0  0  0  0  0  0  0  0  0  0
    0.2343   -1.1610   -1.2579 H   0  0  0  0  0  0  0  0  0  0  0  0
    2.6862   -2.2895   -0.6383 H   0  0  0  0  0  0  0  0  0  0  0  0
    2.1953   -2.4881    1.0460 H   0  0  0  0  0  0  0  0  0  0  0  0
    3.6156   -1.5249    0.6678 H   0  0  0  0  0  0  0  0  0  0  0  0
   -3.1053    0.7205    1.1979 H   0  0  0  0  0  0  0  0  0  0  0  0
   -2.9748    1.4316   -0.4380 H   0  0  0  0  0  0  0  0  0  0  0  0
    4.2113    2.1484   -0.4099 H   0  0  0  0  0  0  0  0  0  0  0  0
    4.4327    0.6063    0.4262 H   0  0  0  0  0  0  0  0  0  0  0  0
    3.2223    1.7848    1.0127 H   0  0  0  0  0  0  0  0  0  0  0  0
   -4.3731   -0.4283   -1.3419 H   0  0  0  0  0  0  0  0  0  0  0  0
   -4.5014   -1.1278    0.2669 H   0  0  0  0  0  0  0  0  0  0  0  0
   -5.2427    0.4561   -0.0652 H   0  0  0  0  0  0  0  0  0  0  0  0
  1  4  1  0  0  0  0
  1  9  1  0  0  0  0
  2  7  1  0  0  0  0
  2  8  1  0  0  0  0
  3  7  2  0  0  0  0
  4  5  1  0  0  0  0
  4  6  1  0  0  0  0
  4 11  1  0  0  0  0
  5  7  1  0  0  0  0
  5 12  1  0  0  0  0
  5 13  1  0  0  0  0
  6 14  1  0  0  0  0
  6 15  1  0  0  0  0
  6 16  1  0  0  0  0
  8 10  1  0  0  0  0
  8 17  1  0  0  0  0
  8 18  1  0  0  0  0
  9 19  1  0  0  0  0
  9 20  1  0  0  0  0
  9 21  1  0  0  0  0
 10 22  1  0  0  0  0
 10 23  1  0  0  0  0
 10 24  1  0  0  0  0
M  END
> <PUBCHEM_COMPOUND_CID>
22213645

> <PUBCHEM_CONFORMER_RMSD>
0.6

> <PUBCHEM_CONFORMER_DIVERSEORDER>
1
276
296
112
205
98
287
302
197
259
228
92
239
285
69
67
254
25
19
249
93
275
199
288
226
139
196
253
107
317
261
318
26
246
314
309
204
294
6
215
159
2
310
18
301
33
323
313
315
55
38
138
45
332
316
128
212
200
177
152
306
31
146
280
135
299
219
20
156
182
290
171
221
35
84
80
7
286
251
329
291
238
295
176
236
122
267
9
224
49
237
37
198
190
3
4
184
178
5
117
319
154
99
242
42
217
70
201
140
307
279
262
100
326
50
129
54
105
14
321
121
57
248
300
130
63
102
12
48
278
167
58
116
233
136
101
264
269
222
255
312
308
120
175
207
166
270
131
29
11
245
155
241
47
32
281
229
21
148
56
273
23
266
157
24
234
293
292
244
189
274
243
230
271
61
213
151
216
208
119
60
27
97
81
88
232
160
170
265
220
297
150
74
8
247
185
41
143
218
227
179
86
113
124
235
258
123
325
260
210
34
43
109
82
180
277
75
168
77
256
46
104
272
66
59
22
114
134
145
118
87
51
10
147
331
126
252
30
94
40
125
162
91
187
83
173
133
110
165
158
191
76
71
13
183
324
153
169
17
78
106
283
115
263
90
95
194
68
214
320
141
39
79
36
209
96
62
240
330
304
181
289
192
127
144
73
103
111
327
172
268
53
16
132
225
164
15
231
305
223
137
282
149
211
298
257
65
85
195
188
44
186
203
52
202
284
193
328
163
303
72
206
64
311
108
322
161
174
142
89
28
250

> <PUBCHEM_MMFF94_PARTIAL_CHARGES>
8
1 -0.46
2 -0.43
3 -0.57
4 0.23
5 0.06
7 0.66
8 0.28
9 0.23

> <PUBCHEM_EFFECTIVE_ROTOR_COUNT>
5

> <PUBCHEM_PHARMACOPHORE_FEATURES>
3
1 3 acceptor
1 6 hydrophobe
1 9 hydrophobe

> <PUBCHEM_HEAVY_ATOM_COUNT>
10

> <PUBCHEM_ATOM_DEF_STEREO_COUNT>
0

> <PUBCHEM_ATOM_UDEF_STEREO_COUNT>
1

> <PUBCHEM_BOND_DEF_STEREO_COUNT>
0

> <PUBCHEM_BOND_UDEF_STEREO_COUNT>
0

> <PUBCHEM_ISOTOPIC_ATOM_COUNT>
0

> <PUBCHEM_COMPONENT_COUNT>
1

> <PUBCHEM_CACTVS_TAUTO_COUNT>
1

> <PUBCHEM_CONFORMER_ID>
0152F40D00000001

> <PUBCHEM_MMFF94_ENERGY>
12.0191

> <PUBCHEM_FEATURE_SELFOVERLAP>
15.223

> <PUBCHEM_SHAPE_FINGERPRINT>
11062470 55 18187083962045472045
12932764 1 16733263456751179603
14325111 11 18408887317451143159
14897335 6 18408884074729891606
15775835 57 18412546548104373396
170605 34 18334015012453769186
18186145 218 17676490493275778171
20606313 2 18040716986872346380
20645477 70 18335699395480019231
20724930 37 16805314518101600272
21293036 1 17989210377585515413
23402655 69 18341324527411917469
23552423 10 18196096538436088055
3248919 1 17313114050589478985
449060 62 18411985779883639984
7364860 26 18342177726881262990

> <PUBCHEM_SHAPE_MULTIPOLES>
197.91
7.13
1.44
0.78
5.28
0.28
-0.09
-1.15
-0.46
-1.54
0.15
-0.25
-0.1
-0.29

> <PUBCHEM_SHAPE_SELFOVERLAP>
348.002

> <PUBCHEM_SHAPE_VOLUME>
131.5

> <PUBCHEM_COORDINATE_TYPE>
2
5
10

$$$$
