22303
  -OEChem-11232109143D

 29 28  0     0  0  0  0  0  0999 V2000
   -2.5779    1.1056   -0.8913 O   0  0  0  0  0  0  0  0  0  0  0  0
   -2.6135    0.1007    0.1245 C   0  0  0  0  0  0  0  0  0  0  0  0
   -1.1632   -0.2188    0.5416 C   0  0  0  0  0  0  0  0  0  0  0  0
   -0.2724   -0.7259   -0.5998 C   0  0  0  0  0  0  0  0  0  0  0  0
   -3.3795    0.6703    1.3230 C   0  0  0  0  0  0  0  0  0  0  0  0
   -3.3456   -1.1234   -0.4299 C   0  0  0  0  0  0  0  0  0  0  0  0
    1.1418   -0.9373   -0.1302 C   0  0  0  0  0  0  0  0  0  0  0  0
    2.1545   -0.0456   -0.1278 C   0  0  0  0  0  0  0  0  0  0  0  0
    2.0047    1.3875   -0.5676 C   0  0  0  0  0  0  0  0  0  0  0  0
    3.4696   -0.4779    0.3427 C   0  0  0  0  0  0  0  0  0  0  0  0
    4.5815    0.2648    0.4147 C   0  0  0  0  0  0  0  0  0  0  0  0
   -1.1688   -0.9574    1.3542 H   0  0  0  0  0  0  0  0  0  0  0  0
   -0.7100    0.6956    0.9487 H   0  0  0  0  0  0  0  0  0  0  0  0
   -0.6455   -1.6844   -0.9784 H   0  0  0  0  0  0  0  0  0  0  0  0
   -0.2863   -0.0395   -1.4521 H   0  0  0  0  0  0  0  0  0  0  0  0
   -3.4436   -0.0531    2.1423 H   0  0  0  0  0  0  0  0  0  0  0  0
   -4.3963    0.9591    1.0333 H   0  0  0  0  0  0  0  0  0  0  0  0
   -2.8970    1.5801    1.6980 H   0  0  0  0  0  0  0  0  0  0  0  0
   -4.3825   -0.8707   -0.6809 H   0  0  0  0  0  0  0  0  0  0  0  0
   -2.8930   -1.4820   -1.3601 H   0  0  0  0  0  0  0  0  0  0  0  0
   -3.3577   -1.9452    0.2933 H   0  0  0  0  0  0  0  0  0  0  0  0
    1.3333   -1.9478    0.2314 H   0  0  0  0  0  0  0  0  0  0  0  0
   -2.3000    0.6935   -1.7262 H   0  0  0  0  0  0  0  0  0  0  0  0
    2.2845    2.0713    0.2416 H   0  0  0  0  0  0  0  0  0  0  0  0
    2.6389    1.5916   -1.4371 H   0  0  0  0  0  0  0  0  0  0  0  0
    0.9802    1.6451   -0.8491 H   0  0  0  0  0  0  0  0  0  0  0  0
    3.5521   -1.5140    0.6677 H   0  0  0  0  0  0  0  0  0  0  0  0
    5.5027   -0.1748    0.7841 H   0  0  0  0  0  0  0  0  0  0  0  0
    4.6164    1.3061    0.1166 H   0  0  0  0  0  0  0  0  0  0  0  0
  1  2  1  0  0  0  0
  1 23  1  0  0  0  0
  2  3  1  0  0  0  0
  2  5  1  0  0  0  0
  2  6  1  0  0  0  0
  3  4  1  0  0  0  0
  3 12  1  0  0  0  0
  3 13  1  0  0  0  0
  4  7  1  0  0  0  0
  4 14  1  0  0  0  0
  4 15  1  0  0  0  0
  5 16  1  0  0  0  0
  5 17  1  0  0  0  0
  5 18  1  0  0  0  0
  6 19  1  0  0  0  0
  6 20  1  0  0  0  0
  6 21  1  0  0  0  0
  7  8  2  3  0  0  0
  7 22  1  0  0  0  0
  8  9  1  0  0  0  0
  8 10  1  0  0  0  0
  9 24  1  0  0  0  0
  9 25  1  0  0  0  0
  9 26  1  0  0  0  0
 10 11  2  0  0  0  0
 10 27  1  0  0  0  0
 11 28  1  0  0  0  0
 11 29  1  0  0  0  0
M  END
> <PUBCHEM_COMPOUND_CID>
22303

> <PUBCHEM_CONFORMER_RMSD>
0.6

> <PUBCHEM_CONFORMER_DIVERSEORDER>
1
23
18
22
4
2
11
13
21
19
6
12
8
15
20
7
17
3
16
5
10
14
9

> <PUBCHEM_MMFF94_PARTIAL_CHARGES>
13
1 -0.68
10 -0.15
11 -0.3
2 0.28
22 0.15
23 0.4
27 0.15
28 0.15
29 0.15
4 0.14
7 -0.29
8 -0.14
9 0.14

> <PUBCHEM_EFFECTIVE_ROTOR_COUNT>
4

> <PUBCHEM_PHARMACOPHORE_FEATURES>
5
1 1 acceptor
1 1 donor
1 11 hydrophobe
1 9 hydrophobe
3 2 5 6 hydrophobe

> <PUBCHEM_HEAVY_ATOM_COUNT>
11

> <PUBCHEM_ATOM_DEF_STEREO_COUNT>
0

> <PUBCHEM_ATOM_UDEF_STEREO_COUNT>
0

> <PUBCHEM_BOND_DEF_STEREO_COUNT>
0

> <PUBCHEM_BOND_UDEF_STEREO_COUNT>
1

> <PUBCHEM_ISOTOPIC_ATOM_COUNT>
0

> <PUBCHEM_COMPONENT_COUNT>
1

> <PUBCHEM_CACTVS_TAUTO_COUNT>
1

> <PUBCHEM_CONFORMER_ID>
0000571F00000001

> <PUBCHEM_MMFF94_ENERGY>
20.1159

> <PUBCHEM_FEATURE_SELFOVERLAP>
25.374

> <PUBCHEM_SHAPE_FINGERPRINT>
10219947 1 18408321073532203382
11062470 55 15626223520220293762
12162725 195 18409732888926527125
12251169 10 18040437710997823850
124424 183 17240757372161382660
12500047 106 14562798963489898043
12897270 3 12031785855500833266
12932764 1 18187370900152206343
14144814 61 18334292063376989554
14325111 11 17989489606268105862
14577589 140 11602537620013562699
15775835 57 17489872600527139523
17802600 8 18336258024390067429
18186145 218 18272939284582531486
19107657 47 17676759946348805646
200 152 18341321275952875815
20279233 1 14562525163366745843
20281407 28 13551185585235962166
20645464 45 17676212351209624083
20671657 1 18122067760858195220
20871999 31 14045729405835194793
22485316 2 12829483757929622816
23402539 116 17968087647347091999
23557571 272 15698002954827491137
3248919 1 18060140925060592071
528716 315 11600001072204846997
57812782 119 17967249805958012531

> <PUBCHEM_SHAPE_MULTIPOLES>
220.51
7.94
1.2
0.96
3.18
0.08
0.06
0.77
1.41
-0.34
-0.16
-0.48
0.21
-0.45

> <PUBCHEM_SHAPE_SELFOVERLAP>
411.095

> <PUBCHEM_SHAPE_VOLUME>
139.5

> <PUBCHEM_COORDINATE_TYPE>
2
5
10

$$$$
