22336876
  -OEChem-11232109203D

 28 28  0     1  0  0  0  0  0999 V2000
    2.5136    0.9846    0.2354 O   0  0  0  0  0  0  0  0  0  0  0  0
    1.5327   -1.1639   -0.3629 C   0  0  1  0  0  0  0  0  0  0  0  0
    0.4814   -1.1639    0.7677 C   0  0  0  0  0  0  0  0  0  0  0  0
    1.9153    0.2508   -0.8240 C   0  0  0  0  0  0  0  0  0  0  0  0
    2.7778   -1.9252    0.1068 C   0  0  0  0  0  0  0  0  0  0  0  0
   -0.8184   -0.4958    0.3912 C   0  0  0  0  0  0  0  0  0  0  0  0
   -0.9911    0.8701    0.6155 C   0  0  0  0  0  0  0  0  0  0  0  0
   -1.8471   -1.2441   -0.1810 C   0  0  0  0  0  0  0  0  0  0  0  0
   -2.1926    1.4876    0.2679 C   0  0  0  0  0  0  0  0  0  0  0  0
   -3.0485   -0.6266   -0.5287 C   0  0  0  0  0  0  0  0  0  0  0  0
   -3.2212    0.7392   -0.3043 C   0  0  0  0  0  0  0  0  0  0  0  0
    2.8981    2.2872   -0.1836 C   0  0  0  0  0  0  0  0  0  0  0  0
    1.1162   -1.6946   -1.2292 H   0  0  0  0  0  0  0  0  0  0  0  0
    0.8874   -0.6787    1.6655 H   0  0  0  0  0  0  0  0  0  0  0  0
    0.2703   -2.1982    1.0715 H   0  0  0  0  0  0  0  0  0  0  0  0
    1.0472    0.7899   -1.2174 H   0  0  0  0  0  0  0  0  0  0  0  0
    2.6380    0.1685   -1.6461 H   0  0  0  0  0  0  0  0  0  0  0  0
    3.2230   -1.4662    0.9959 H   0  0  0  0  0  0  0  0  0  0  0  0
    2.5248   -2.9615    0.3556 H   0  0  0  0  0  0  0  0  0  0  0  0
    3.5384   -1.9494   -0.6807 H   0  0  0  0  0  0  0  0  0  0  0  0
   -0.2024    1.4650    1.0677 H   0  0  0  0  0  0  0  0  0  0  0  0
   -1.7236   -2.3083   -0.3627 H   0  0  0  0  0  0  0  0  0  0  0  0
   -2.3278    2.5507    0.4441 H   0  0  0  0  0  0  0  0  0  0  0  0
   -3.8493   -1.2090   -0.9747 H   0  0  0  0  0  0  0  0  0  0  0  0
   -4.1568    1.2199   -0.5748 H   0  0  0  0  0  0  0  0  0  0  0  0
    3.3491    2.8031    0.6683 H   0  0  0  0  0  0  0  0  0  0  0  0
    2.0242    2.8572   -0.5138 H   0  0  0  0  0  0  0  0  0  0  0  0
    3.6374    2.2293   -0.9882 H   0  0  0  0  0  0  0  0  0  0  0  0
  1  4  1  0  0  0  0
  1 12  1  0  0  0  0
  2  3  1  0  0  0  0
  2  4  1  0  0  0  0
  2  5  1  0  0  0  0
  2 13  1  0  0  0  0
  3  6  1  0  0  0  0
  3 14  1  0  0  0  0
  3 15  1  0  0  0  0
  4 16  1  0  0  0  0
  4 17  1  0  0  0  0
  5 18  1  0  0  0  0
  5 19  1  0  0  0  0
  5 20  1  0  0  0  0
  6  7  2  0  0  0  0
  6  8  1  0  0  0  0
  7  9  1  0  0  0  0
  7 21  1  0  0  0  0
  8 10  2  0  0  0  0
  8 22  1  0  0  0  0
  9 11  2  0  0  0  0
  9 23  1  0  0  0  0
 10 11  1  0  0  0  0
 10 24  1  0  0  0  0
 11 25  1  0  0  0  0
 12 26  1  0  0  0  0
 12 27  1  0  0  0  0
 12 28  1  0  0  0  0
M  END
> <PUBCHEM_COMPOUND_CID>
22336876

> <PUBCHEM_CONFORMER_RMSD>
0.6

> <PUBCHEM_CONFORMER_DIVERSEORDER>
1
20
15
14
23
24
25
3
9
27
11
16
7
29
28
2
8
6
30
10
5
18
4
19
22
26
21
31
17
13
12

> <PUBCHEM_MMFF94_PARTIAL_CHARGES>
15
1 -0.56
10 -0.15
11 -0.15
12 0.28
21 0.15
22 0.15
23 0.15
24 0.15
25 0.15
3 0.14
4 0.28
6 -0.14
7 -0.15
8 -0.15
9 -0.15

> <PUBCHEM_EFFECTIVE_ROTOR_COUNT>
4

> <PUBCHEM_PHARMACOPHORE_FEATURES>
3
1 1 acceptor
1 5 hydrophobe
6 6 7 8 9 10 11 rings

> <PUBCHEM_HEAVY_ATOM_COUNT>
12

> <PUBCHEM_ATOM_DEF_STEREO_COUNT>
0

> <PUBCHEM_ATOM_UDEF_STEREO_COUNT>
1

> <PUBCHEM_BOND_DEF_STEREO_COUNT>
0

> <PUBCHEM_BOND_UDEF_STEREO_COUNT>
0

> <PUBCHEM_ISOTOPIC_ATOM_COUNT>
0

> <PUBCHEM_COMPONENT_COUNT>
1

> <PUBCHEM_CACTVS_TAUTO_COUNT>
1

> <PUBCHEM_CONFORMER_ID>
0154D56C00000001

> <PUBCHEM_MMFF94_ENERGY>
28.9558

> <PUBCHEM_FEATURE_SELFOVERLAP>
15.223

> <PUBCHEM_SHAPE_FINGERPRINT>
10465860 71 17985846843052472926
12162725 195 18412823568783195166
12897270 3 18271811258355465575
12932764 1 18338250292230612559
13897977 150 18339078306191199577
14250199 8 18410577257953512605
15775835 57 18263093144743802572
16945 1 18266744764735901059
18186145 218 17895191065559617919
18619055 16 18343295959865014567
19973954 147 18411704261693278456
20653085 51 18337398123780297201
20711985 344 14116698439778910402
21501502 16 18343301457328175393
21524375 3 18265893747479447088
21947302 44 18409167727286461934
230 275 17385725789834503046
23552423 10 18338793425395107059
25610 137 18338803441485460771
2748010 2 18261969521169750034
305870 269 18334292106637684458
3248919 1 17346602919913764023
353137 74 18411417358147106489
5262128 65 17559422243297962164
63268167 104 18261682450050813896
7364860 26 18341612594857458990
74978 22 18337394837719248674
7832392 63 18051413967905486048
8030462 33 18335996310541951030
81228 2 16880786181685622883
9939556 21 18342455885583850535

> <PUBCHEM_SHAPE_MULTIPOLES>
241.09
5.42
2.15
0.82
0.27
0.56
0
1.06
0.8
-1.68
-0.05
0
-0.03
-0.3

> <PUBCHEM_SHAPE_SELFOVERLAP>
479.636

> <PUBCHEM_SHAPE_VOLUME>
144

> <PUBCHEM_COORDINATE_TYPE>
2
5
10

$$$$
