22445528
  -OEChem-11232108573D

 20 19  0     1  0  0  0  0  0999 V2000
    2.1556    1.8661    0.1889 S   0  0  0  0  0  0  0  0  0  0  0  0
    1.9048   -0.6988   -1.3139 O   0  5  0  0  0  0  0  0  0  0  0  0
    1.9848   -1.5809    0.7908 O   0  0  0  0  0  0  0  0  0  0  0  0
   -1.5128   -0.0196    0.3303 C   0  0  0  0  0  0  0  0  0  0  0  0
   -0.3783    0.8897   -0.1577 C   0  0  0  0  0  0  0  0  0  0  0  0
   -2.8267    0.3014   -0.3824 C   0  0  0  0  0  0  0  0  0  0  0  0
    0.9536    0.5248    0.4960 C   0  0  1  0  0  0  0  0  0  0  0  0
   -3.9611   -0.5779    0.1186 C   0  0  0  0  0  0  0  0  0  0  0  0
    1.6800   -0.7049   -0.0706 C   0  0  0  0  0  0  0  0  0  0  0  0
   -1.2493   -1.0690    0.1507 H   0  0  0  0  0  0  0  0  0  0  0  0
   -1.6393    0.1017    1.4130 H   0  0  0  0  0  0  0  0  0  0  0  0
   -0.6508    1.9266    0.0787 H   0  0  0  0  0  0  0  0  0  0  0  0
   -0.3058    0.8152   -1.2503 H   0  0  0  0  0  0  0  0  0  0  0  0
   -2.7096    0.1576   -1.4628 H   0  0  0  0  0  0  0  0  0  0  0  0
   -3.0904    1.3532   -0.2216 H   0  0  0  0  0  0  0  0  0  0  0  0
    0.8356    0.4345    1.5815 H   0  0  0  0  0  0  0  0  0  0  0  0
   -4.1262   -0.4324    1.1909 H   0  0  0  0  0  0  0  0  0  0  0  0
   -4.8906   -0.3323   -0.4045 H   0  0  0  0  0  0  0  0  0  0  0  0
   -3.7429   -1.6364   -0.0552 H   0  0  0  0  0  0  0  0  0  0  0  0
    2.1186    1.8117   -1.1511 H   0  0  0  0  0  0  0  0  0  0  0  0
  1  7  1  0  0  0  0
  1 20  1  0  0  0  0
  2  9  1  0  0  0  0
  3  9  2  0  0  0  0
  4  5  1  0  0  0  0
  4  6  1  0  0  0  0
  4 10  1  0  0  0  0
  4 11  1  0  0  0  0
  5  7  1  0  0  0  0
  5 12  1  0  0  0  0
  5 13  1  0  0  0  0
  6  8  1  0  0  0  0
  6 14  1  0  0  0  0
  6 15  1  0  0  0  0
  7  9  1  0  0  0  0
  7 16  1  0  0  0  0
  8 17  1  0  0  0  0
  8 18  1  0  0  0  0
  8 19  1  0  0  0  0
M  CHG  1   2  -1
M  END
> <PUBCHEM_COMPOUND_CID>
22445528

> <PUBCHEM_CONFORMER_RMSD>
0.6

> <PUBCHEM_CONFORMER_DIVERSEORDER>
1
45
23
42
15
19
14
38
18
44
34
46
4
3
20
43
32
31
35
29
12
47
16
30
13
33
2
22
36
8
17
27
25
28
21
7
24
5
10
41
9
39
40
11
37
6
26

> <PUBCHEM_MMFF94_PARTIAL_CHARGES>
6
1 -0.41
2 -0.9
20 0.18
3 -0.9
7 0.12
9 0.91

> <PUBCHEM_EFFECTIVE_ROTOR_COUNT>
4

> <PUBCHEM_PHARMACOPHORE_FEATURES>
4
1 2 acceptor
1 3 acceptor
1 8 hydrophobe
3 2 3 9 anion

> <PUBCHEM_HEAVY_ATOM_COUNT>
9

> <PUBCHEM_ATOM_DEF_STEREO_COUNT>
0

> <PUBCHEM_ATOM_UDEF_STEREO_COUNT>
1

> <PUBCHEM_BOND_DEF_STEREO_COUNT>
0

> <PUBCHEM_BOND_UDEF_STEREO_COUNT>
0

> <PUBCHEM_ISOTOPIC_ATOM_COUNT>
0

> <PUBCHEM_COMPONENT_COUNT>
1

> <PUBCHEM_CACTVS_TAUTO_COUNT>
1

> <PUBCHEM_CONFORMER_ID>
01567DD800000001

> <PUBCHEM_MMFF94_ENERGY>
8.9333

> <PUBCHEM_FEATURE_SELFOVERLAP>
20.352

> <PUBCHEM_SHAPE_FINGERPRINT>
12932764 1 18333735697919474453
14325111 11 18410853283260328697
170605 34 18270682102974481144
20279233 1 17968092071126178323
20645477 70 18341607118995839503
20653091 64 18342460300926379648
20871998 22 18129384791570605054
23552333 60 18202566189339168360
23552423 10 18408887321730481121
23552449 11 18341325626169138464
3248919 1 17775563126831627649
528862 383 18343013432420960252

> <PUBCHEM_SHAPE_MULTIPOLES>
177.33
5.35
1.54
0.87
6.01
0.1
0.13
-0.36
0.04
-1.54
-0.14
-0.33
-0.17
0.15

> <PUBCHEM_SHAPE_SELFOVERLAP>
315.791

> <PUBCHEM_SHAPE_VOLUME>
116.4

> <PUBCHEM_COORDINATE_TYPE>
2
5
10

$$$$
