22476645
  -OEChem-11232109483D

 34 34  0     1  0  0  0  0  0999 V2000
   -2.2721   -0.3207    1.5016 O   0  0  0  0  0  0  0  0  0  0  0  0
    0.3349   -0.1373    0.0467 C   0  0  2  0  0  0  0  0  0  0  0  0
   -2.2055   -0.4147    0.0757 C   0  0  2  0  0  0  0  0  0  0  0  0
   -0.8566   -1.0365   -0.3243 C   0  0  0  0  0  0  0  0  0  0  0  0
    0.1653    1.2654   -0.5496 C   0  0  0  0  0  0  0  0  0  0  0  0
   -2.3476    1.0019   -0.5001 C   0  0  0  0  0  0  0  0  0  0  0  0
   -1.1616    1.8961   -0.1379 C   0  0  0  0  0  0  0  0  0  0  0  0
    1.6477   -0.7648   -0.4207 C   0  0  0  0  0  0  0  0  0  0  0  0
    2.8821    0.0846   -0.0836 C   0  0  0  0  0  0  0  0  0  0  0  0
   -3.3662   -1.2971   -0.3877 C   0  0  0  0  0  0  0  0  0  0  0  0
    3.0420    0.3138    1.4200 C   0  0  0  0  0  0  0  0  0  0  0  0
    4.1377   -0.5908   -0.6401 C   0  0  0  0  0  0  0  0  0  0  0  0
    0.3508   -0.0518    1.1402 H   0  0  0  0  0  0  0  0  0  0  0  0
   -0.8474   -1.2288   -1.4054 H   0  0  0  0  0  0  0  0  0  0  0  0
   -0.7328   -2.0053    0.1770 H   0  0  0  0  0  0  0  0  0  0  0  0
    0.2220    1.2194   -1.6446 H   0  0  0  0  0  0  0  0  0  0  0  0
    0.9569    1.9415   -0.2126 H   0  0  0  0  0  0  0  0  0  0  0  0
   -3.2617    1.4736   -0.1184 H   0  0  0  0  0  0  0  0  0  0  0  0
   -2.4370    0.9542   -1.5928 H   0  0  0  0  0  0  0  0  0  0  0  0
   -1.1576    2.0877    0.9422 H   0  0  0  0  0  0  0  0  0  0  0  0
   -1.2744    2.8689   -0.6304 H   0  0  0  0  0  0  0  0  0  0  0  0
    1.7536   -1.7589    0.0332 H   0  0  0  0  0  0  0  0  0  0  0  0
    1.6095   -0.9247   -1.5065 H   0  0  0  0  0  0  0  0  0  0  0  0
    2.8211    1.0586   -0.5804 H   0  0  0  0  0  0  0  0  0  0  0  0
   -3.2944   -2.2992    0.0505 H   0  0  0  0  0  0  0  0  0  0  0  0
   -4.3257   -0.8827   -0.0580 H   0  0  0  0  0  0  0  0  0  0  0  0
   -3.3874   -1.3977   -1.4776 H   0  0  0  0  0  0  0  0  0  0  0  0
   -2.1715   -1.2165    1.8664 H   0  0  0  0  0  0  0  0  0  0  0  0
    2.2395    0.9399    1.8206 H   0  0  0  0  0  0  0  0  0  0  0  0
    3.0443   -0.6344    1.9682 H   0  0  0  0  0  0  0  0  0  0  0  0
    3.9851    0.8280    1.6354 H   0  0  0  0  0  0  0  0  0  0  0  0
    5.0270    0.0186   -0.4466 H   0  0  0  0  0  0  0  0  0  0  0  0
    4.2961   -1.5741   -0.1839 H   0  0  0  0  0  0  0  0  0  0  0  0
    4.0589   -0.7282   -1.7238 H   0  0  0  0  0  0  0  0  0  0  0  0
  1  3  1  0  0  0  0
  1 28  1  0  0  0  0
  2  4  1  0  0  0  0
  2  5  1  0  0  0  0
  2  8  1  0  0  0  0
  2 13  1  0  0  0  0
  3  4  1  0  0  0  0
  3  6  1  0  0  0  0
  3 10  1  0  0  0  0
  4 14  1  0  0  0  0
  4 15  1  0  0  0  0
  5  7  1  0  0  0  0
  5 16  1  0  0  0  0
  5 17  1  0  0  0  0
  6  7  1  0  0  0  0
  6 18  1  0  0  0  0
  6 19  1  0  0  0  0
  7 20  1  0  0  0  0
  7 21  1  0  0  0  0
  8  9  1  0  0  0  0
  8 22  1  0  0  0  0
  8 23  1  0  0  0  0
  9 11  1  0  0  0  0
  9 12  1  0  0  0  0
  9 24  1  0  0  0  0
 10 25  1  0  0  0  0
 10 26  1  0  0  0  0
 10 27  1  0  0  0  0
 11 29  1  0  0  0  0
 11 30  1  0  0  0  0
 11 31  1  0  0  0  0
 12 32  1  0  0  0  0
 12 33  1  0  0  0  0
 12 34  1  0  0  0  0
M  END
> <PUBCHEM_COMPOUND_CID>
22476645

> <PUBCHEM_CONFORMER_RMSD>
0.6

> <PUBCHEM_CONFORMER_DIVERSEORDER>
1
29
9
13
5
3
10
4
20
6
28
16
11
17
21
22
15
30
24
8
7
12
18
14
26
23
27
2
25
19

> <PUBCHEM_MMFF94_PARTIAL_CHARGES>
3
1 -0.68
28 0.4
3 0.28

> <PUBCHEM_EFFECTIVE_ROTOR_COUNT>
3.2

> <PUBCHEM_PHARMACOPHORE_FEATURES>
4
1 1 acceptor
1 1 donor
3 9 11 12 hydrophobe
6 2 3 4 5 6 7 rings

> <PUBCHEM_HEAVY_ATOM_COUNT>
12

> <PUBCHEM_ATOM_DEF_STEREO_COUNT>
0

> <PUBCHEM_ATOM_UDEF_STEREO_COUNT>
2

> <PUBCHEM_BOND_DEF_STEREO_COUNT>
0

> <PUBCHEM_BOND_UDEF_STEREO_COUNT>
0

> <PUBCHEM_ISOTOPIC_ATOM_COUNT>
0

> <PUBCHEM_COMPONENT_COUNT>
1

> <PUBCHEM_CACTVS_TAUTO_COUNT>
1

> <PUBCHEM_CONFORMER_ID>
0156F76500000001

> <PUBCHEM_MMFF94_ENERGY>
20.3215

> <PUBCHEM_FEATURE_SELFOVERLAP>
20.297

> <PUBCHEM_SHAPE_FINGERPRINT>
10857977 72 18409724071358752872
11062470 55 13767924628686172294
11132069 177 18342731936048404408
11543360 7 14851888118210266923
12032990 46 18411421742992321559
12932764 1 18201716232855233646
13024252 1 17458348520317614373
13296908 3 18411979157059660070
14144814 61 17385442107497816266
14325111 11 18410573951255891134
15219456 202 18060692888772428704
16945 1 18335421274481837455
17834072 14 18267848636056202117
17844478 74 18272936020264818816
18175812 5 18131630075823826972
18186145 218 17489590048083473042
200 152 15574708102029593290
20279233 1 18272642425122390454
20281407 28 18411419514067649698
20528008 55 18060692905488087263
20645464 45 17846503599332540806
20715346 28 18130497587590158788
20871998 184 18272370867114533343
21061003 4 18272376385978878745
21501502 16 18192710034180231474
21524375 3 17541653920513004501
2306618 200 18130508513665265360
23402539 116 18410282623228928599
23532345 42 18339633555310106378
23557571 272 18271814505450942485
23559900 14 18339636738329259342
2748010 2 18194405493873695679
3248919 1 17385723573763455002
3286 77 17346878970494453450
369184 2 17132112437761121801
5084963 1 18201440302274964275
6333449 129 18341327795233163581
75552 356 18187649089273031860
8030462 33 17821725018490432722
81228 2 18189340078291214477

> <PUBCHEM_SHAPE_MULTIPOLES>
241.09
6.16
1.48
1.04
3.85
0.45
0.39
-1.64
0.06
-0.94
-0.24
0.27
0.02
0.37

> <PUBCHEM_SHAPE_SELFOVERLAP>
465.683

> <PUBCHEM_SHAPE_VOLUME>
147.1

> <PUBCHEM_COORDINATE_TYPE>
2
5
10

$$$$
