226249
  -OEChem-11232109123D

 21 21  0     0  0  0  0  0  0999 V2000
    0.7967   -0.3834   -0.1202 S   0  0  0  0  0  0  0  0  0  0  0  0
   -2.6449    0.9628   -0.5704 O   0  0  0  0  0  0  0  0  0  0  0  0
    3.5788   -1.2505   -0.5911 O   0  0  0  0  0  0  0  0  0  0  0  0
   -0.4671    0.7875    0.4300 C   0  0  0  0  0  0  0  0  0  0  0  0
   -1.8476    0.2321    0.2287 C   0  0  0  0  0  0  0  0  0  0  0  0
    2.2630    0.6001    0.2656 C   0  0  0  0  0  0  0  0  0  0  0  0
   -2.4572   -0.8796    0.7028 C   0  0  0  0  0  0  0  0  0  0  0  0
    3.5434   -0.1271   -0.0911 C   0  0  0  0  0  0  0  0  0  0  0  0
   -3.7608   -0.8493    0.1527 C   0  0  0  0  0  0  0  0  0  0  0  0
   -3.8252    0.2908   -0.6142 C   0  0  0  0  0  0  0  0  0  0  0  0
    4.8210    0.6167    0.2074 C   0  0  0  0  0  0  0  0  0  0  0  0
   -0.3539    1.7239   -0.1266 H   0  0  0  0  0  0  0  0  0  0  0  0
   -0.3235    1.0025    1.4942 H   0  0  0  0  0  0  0  0  0  0  0  0
    2.2310    1.5345   -0.3023 H   0  0  0  0  0  0  0  0  0  0  0  0
    2.2798    0.8168    1.3377 H   0  0  0  0  0  0  0  0  0  0  0  0
   -2.0406   -1.6279    1.3615 H   0  0  0  0  0  0  0  0  0  0  0  0
   -4.5545   -1.5679    0.2975 H   0  0  0  0  0  0  0  0  0  0  0  0
   -4.5973    0.7412   -1.2208 H   0  0  0  0  0  0  0  0  0  0  0  0
    5.6805    0.0087   -0.0888 H   0  0  0  0  0  0  0  0  0  0  0  0
    4.8402    1.5527   -0.3563 H   0  0  0  0  0  0  0  0  0  0  0  0
    4.8848    0.8197    1.2791 H   0  0  0  0  0  0  0  0  0  0  0  0
  1  4  1  0  0  0  0
  1  6  1  0  0  0  0
  2  5  1  0  0  0  0
  2 10  1  0  0  0  0
  3  8  2  0  0  0  0
  4  5  1  0  0  0  0
  4 12  1  0  0  0  0
  4 13  1  0  0  0  0
  5  7  2  0  0  0  0
  6  8  1  0  0  0  0
  6 14  1  0  0  0  0
  6 15  1  0  0  0  0
  7  9  1  0  0  0  0
  7 16  1  0  0  0  0
  8 11  1  0  0  0  0
  9 10  2  0  0  0  0
  9 17  1  0  0  0  0
 10 18  1  0  0  0  0
 11 19  1  0  0  0  0
 11 20  1  0  0  0  0
 11 21  1  0  0  0  0
M  END
> <PUBCHEM_COMPOUND_CID>
226249

> <PUBCHEM_CONFORMER_RMSD>
0.6

> <PUBCHEM_CONFORMER_DIVERSEORDER>
1
73
35
71
69
24
54
75
43
44
28
60
26
59
20
36
41
49
7
16
77
38
37
27
31
8
30
64
62
66
51
12
70
14
10
23
52
11
29
74
47
45
18
33
76
40
72
5
68
3
13
58
6
32
4
63
50
53
61
56
55
15
21
65
46
19
2
17
39
22
25
57
48
9
34
42
67

> <PUBCHEM_MMFF94_PARTIAL_CHARGES>
14
1 -0.46
10 -0.01
11 0.06
16 0.15
17 0.15
18 0.15
2 -0.28
3 -0.57
4 0.41
5 -0.04
6 0.29
7 -0.15
8 0.45
9 -0.15

> <PUBCHEM_EFFECTIVE_ROTOR_COUNT>
4

> <PUBCHEM_PHARMACOPHORE_FEATURES>
3
1 2 acceptor
1 3 acceptor
5 2 5 7 9 10 rings

> <PUBCHEM_HEAVY_ATOM_COUNT>
11

> <PUBCHEM_ATOM_DEF_STEREO_COUNT>
0

> <PUBCHEM_ATOM_UDEF_STEREO_COUNT>
0

> <PUBCHEM_BOND_DEF_STEREO_COUNT>
0

> <PUBCHEM_BOND_UDEF_STEREO_COUNT>
0

> <PUBCHEM_ISOTOPIC_ATOM_COUNT>
0

> <PUBCHEM_COMPONENT_COUNT>
1

> <PUBCHEM_CACTVS_TAUTO_COUNT>
3

> <PUBCHEM_CONFORMER_ID>
000373C900000001

> <PUBCHEM_MMFF94_ENERGY>
9.4975

> <PUBCHEM_FEATURE_SELFOVERLAP>
15.223

> <PUBCHEM_SHAPE_FINGERPRINT>
11062470 55 15864069870971491608
114248 4 18333731342453384200
14123238 8 18343582971239146984
14325111 11 18411420596541703192
190213 19 18409731759539986836
1986462 14 18040435486262676367
200 152 17704066300924807789
20201158 50 18412547600081314443
20279233 1 18408045113103622818
20645477 56 18040996203113068613
20645477 70 18200876171749284702
20671657 1 15409469199534775344
20711985 327 15554447422238566921
21119208 17 17458343043833430759
22485316 2 18273493476844318166
23402539 116 17749381585989475135
23559900 14 18334853888476084890
573450 72 17458329832535355064
57812782 119 18408323293639814308

> <PUBCHEM_SHAPE_MULTIPOLES>
218.49
9.49
1.07
0.77
5.71
0.11
-0.01
0.42
0.71
-0.02
0.03
-0.19
0.02
0.62

> <PUBCHEM_SHAPE_SELFOVERLAP>
424.499

> <PUBCHEM_SHAPE_VOLUME>
134.4

> <PUBCHEM_COORDINATE_TYPE>
2
5
10

$$$$
