226311
  -OEChem-11232109163D

 33 32  0     1  0  0  0  0  0999 V2000
   -1.9434   -0.4868    1.6651 O   0  0  0  0  0  0  0  0  0  0  0  0
   -0.5829   -0.1993   -1.6972 O   0  0  0  0  0  0  0  0  0  0  0  0
   -2.8826    1.6629    0.0919 O   0  0  0  0  0  0  0  0  0  0  0  0
    0.4217   -2.2386    0.1010 O   0  0  0  0  0  0  0  0  0  0  0  0
   -5.5051    0.7127   -0.2287 O   0  0  0  0  0  0  0  0  0  0  0  0
    2.6583   -1.2464   -0.9027 O   0  0  0  0  0  0  0  0  0  0  0  0
    4.8503   -0.1047    0.8251 O   0  0  0  0  0  0  0  0  0  0  0  0
    2.3200    0.8720   -0.0217 N   0  0  0  0  0  0  0  0  0  0  0  0
   -1.9531   -0.5363    0.2308 C   0  0  2  0  0  0  0  0  0  0  0  0
   -0.5724   -0.0776   -0.2687 C   0  0  1  0  0  0  0  0  0  0  0  0
   -3.1421    0.2994   -0.2660 C   0  0  1  0  0  0  0  0  0  0  0  0
    0.6222   -0.8474    0.3119 C   0  0  2  0  0  0  0  0  0  0  0  0
   -4.4855   -0.1066    0.3368 C   0  0  0  0  0  0  0  0  0  0  0  0
    1.9685   -0.4408   -0.2795 C   0  0  0  0  0  0  0  0  0  0  0  0
    3.5638    1.4568   -0.4653 C   0  0  0  0  0  0  0  0  0  0  0  0
    4.6624    1.2807    0.5671 C   0  0  0  0  0  0  0  0  0  0  0  0
   -2.1267   -1.5792   -0.0593 H   0  0  0  0  0  0  0  0  0  0  0  0
   -0.4287    0.9844   -0.0372 H   0  0  0  0  0  0  0  0  0  0  0  0
   -3.2052    0.2612   -1.3593 H   0  0  0  0  0  0  0  0  0  0  0  0
    0.6722   -0.6848    1.3954 H   0  0  0  0  0  0  0  0  0  0  0  0
   -4.5124    0.0341    1.4220 H   0  0  0  0  0  0  0  0  0  0  0  0
   -4.7186   -1.1503    0.1069 H   0  0  0  0  0  0  0  0  0  0  0  0
   -1.8181    0.4420    1.9255 H   0  0  0  0  0  0  0  0  0  0  0  0
   -1.1395    0.5148   -2.0509 H   0  0  0  0  0  0  0  0  0  0  0  0
    1.6988    1.4532    0.5328 H   0  0  0  0  0  0  0  0  0  0  0  0
   -3.5283    2.2171   -0.3780 H   0  0  0  0  0  0  0  0  0  0  0  0
    1.1141   -2.7117    0.5934 H   0  0  0  0  0  0  0  0  0  0  0  0
    3.3832    2.5191   -0.6549 H   0  0  0  0  0  0  0  0  0  0  0  0
    3.8540    0.9777   -1.4068 H   0  0  0  0  0  0  0  0  0  0  0  0
   -5.3958    1.6088    0.1317 H   0  0  0  0  0  0  0  0  0  0  0  0
    4.3931    1.7705    1.5086 H   0  0  0  0  0  0  0  0  0  0  0  0
    5.6034    1.7029    0.2018 H   0  0  0  0  0  0  0  0  0  0  0  0
    5.5586   -0.1779    1.4872 H   0  0  0  0  0  0  0  0  0  0  0  0
  1  9  1  0  0  0  0
  1 23  1  0  0  0  0
  2 10  1  0  0  0  0
  2 24  1  0  0  0  0
  3 11  1  0  0  0  0
  3 26  1  0  0  0  0
  4 12  1  0  0  0  0
  4 27  1  0  0  0  0
  5 13  1  0  0  0  0
  5 30  1  0  0  0  0
  6 14  2  0  0  0  0
  7 16  1  0  0  0  0
  7 33  1  0  0  0  0
  8 14  1  0  0  0  0
  8 15  1  0  0  0  0
  8 25  1  0  0  0  0
  9 10  1  0  0  0  0
  9 11  1  0  0  0  0
  9 17  1  0  0  0  0
 10 12  1  0  0  0  0
 10 18  1  0  0  0  0
 11 13  1  0  0  0  0
 11 19  1  0  0  0  0
 12 14  1  0  0  0  0
 12 20  1  0  0  0  0
 13 21  1  0  0  0  0
 13 22  1  0  0  0  0
 15 16  1  0  0  0  0
 15 28  1  0  0  0  0
 15 29  1  0  0  0  0
 16 31  1  0  0  0  0
 16 32  1  0  0  0  0
M  END
> <PUBCHEM_COMPOUND_CID>
226311

> <PUBCHEM_CONFORMER_RMSD>
1

> <PUBCHEM_CONFORMER_DIVERSEORDER>
11
222
15
335
89
281
96
310
163
38
53
232
288
35
298
300
18
266
48
282
44
190
20
117
238
153
233
103
115
1
215
277
212
31
257
194
219
10
248
110
330
173
19
296
198
213
331
302
111
41
247
285
325
167
88
230
7
229
170
244
144
14
237
149
314
311
65
57
260
109
174
136
37
258
319
25
196
81
264
132
94
93
307
127
99
185
46
13
95
208
283
226
252
204
82
249
30
255
164
24
55
100
124
210
304
142
79
161
322
262
261
171
336
97
63
16
5
197
113
218
211
126
61
200
275
234
49
228
223
119
224
3
259
251
66
169
165
179
28
101
139
138
254
84
235
159
279
22
86
192
209
227
166
299
50
69
265
106
207
147
54
143
125
305
9
4
195
104
267
77
157
156
51
122
231
68
318
323
6
256
23
205
78
217
321
121
73
21
102
133
239
90
236
268
151
303
313
317
29
276
98
290
320
242
120
181
250
291
80
329
47
263
75
107
178
58
87
316
243
284
193
2
56
26
43
135
116
70
160
221
312
45
309
145
188
74
220
8
326
295
301
114
306
67
42
333
83
130
12
36
292
327
172
177
272
182
140
334
241
152
297
278
85
123
240
315
191
76
189
40
287
269
187
64
225
270
273
92
202
137
118
324
91
328
294
246
141
112
150
293
271
128
199
134
332
17
131
39
148
274
146
129
245
184
71
216
180
168
60
33
62
214
34
206
183
27
286
201
154
289
176
105
253
59
52
186
162
158
280
32
108
308
155
175
203
72

> <PUBCHEM_MMFF94_PARTIAL_CHARGES>
23
1 -0.68
10 0.28
11 0.28
12 0.34
13 0.28
14 0.57
15 0.3
16 0.28
2 -0.68
23 0.4
24 0.4
25 0.37
26 0.4
27 0.4
3 -0.68
30 0.4
33 0.4
4 -0.68
5 -0.68
6 -0.57
7 -0.68
8 -0.73
9 0.28

> <PUBCHEM_EFFECTIVE_ROTOR_COUNT>
8

> <PUBCHEM_PHARMACOPHORE_FEATURES>
14
1 1 acceptor
1 1 donor
1 2 acceptor
1 2 donor
1 3 acceptor
1 3 donor
1 4 acceptor
1 4 donor
1 5 acceptor
1 5 donor
1 6 acceptor
1 7 acceptor
1 7 donor
1 8 donor

> <PUBCHEM_HEAVY_ATOM_COUNT>
16

> <PUBCHEM_ATOM_DEF_STEREO_COUNT>
0

> <PUBCHEM_ATOM_UDEF_STEREO_COUNT>
4

> <PUBCHEM_BOND_DEF_STEREO_COUNT>
0

> <PUBCHEM_BOND_UDEF_STEREO_COUNT>
0

> <PUBCHEM_ISOTOPIC_ATOM_COUNT>
0

> <PUBCHEM_COMPONENT_COUNT>
1

> <PUBCHEM_CACTVS_TAUTO_COUNT>
2

> <PUBCHEM_CONFORMER_ID>
000374070000000B

> <PUBCHEM_MMFF94_ENERGY>
25.2837

> <PUBCHEM_FEATURE_SELFOVERLAP>
71.087

> <PUBCHEM_SHAPE_FINGERPRINT>
11128504 68 15123789604122696560
11132069 177 17894917334361235439
114248 4 14333410068631918824
12119455 92 18187639228070480606
12251169 10 17095522915492229076
13533116 47 17676759873376852674
13675066 3 13984657083476929269
14252887 29 12324231759624003856
14897335 6 18131070459034214982
14943859 89 18131068263999789594
14993402 34 16558752325554593849
15048467 5 17632582622351062481
15775835 57 18060420235162762917
17834072 8 17917439726766733052
18186145 218 18059031522318357606
187816 3 13398637168507433046
20279233 1 18260275152281668707
20281475 54 9366807177563962828
20374829 77 10303820864746999020
204376 136 18411141367522015754
20645476 183 17060331959429438607
20645477 56 18410576205876383541
20645477 70 18059862705579713718
20871999 31 16056304150513480789
212847 35 18409448120316964696
21524375 3 18342738541829561342
21618674 25 18259985963960386931
22854114 59 18260550021777889637
22926399 37 17775289382548299281
23402539 116 18339352062958380407
23402655 69 18059855039453168157
23559900 14 17603882065297987510
328317 168 18410291436865459165
351380 180 18334292088914801736
42 15 16515398573571096576
449060 50 18408044013586525445
465052 167 11314308330415081376
5104073 3 17969227733810430353
83771 10 9943532907442059770
94968 8 9367352531094511500

> <PUBCHEM_SHAPE_MULTIPOLES>
283.21
9.98
1.5
1.02
1.09
0.18
-0.02
-4.35
1.45
-0.68
-0.03
-0.02
0.12
0.32

> <PUBCHEM_SHAPE_SELFOVERLAP>
542.713

> <PUBCHEM_SHAPE_VOLUME>
171.6

> <PUBCHEM_COORDINATE_TYPE>
2
5
10

$$$$
