22757845
  -OEChem-11232109053D

 29 28  0     1  0  0  0  0  0999 V2000
    2.3321   -0.3865    0.7008 O   0  0  0  0  0  0  0  0  0  0  0  0
    2.2814   -2.1487   -0.7999 O   0  0  0  0  0  0  0  0  0  0  0  0
   -0.0764   -0.2117    0.5218 C   0  0  0  0  0  0  0  0  0  0  0  0
   -1.2842    0.3340   -0.2506 C   0  0  0  0  0  0  0  0  0  0  0  0
    1.2829    0.2704   -0.0062 C   0  0  1  0  0  0  0  0  0  0  0  0
   -2.5922   -0.2524    0.2891 C   0  0  0  0  0  0  0  0  0  0  0  0
    1.4738    1.7856    0.1125 C   0  0  0  0  0  0  0  0  0  0  0  0
   -3.8364    0.2793   -0.4255 C   0  0  0  0  0  0  0  0  0  0  0  0
    2.8301    2.2342   -0.4187 C   0  0  0  0  0  0  0  0  0  0  0  0
   -5.1356   -0.3207    0.0893 C   0  0  0  0  0  0  0  0  0  0  0  0
    2.7247   -1.5836    0.1876 C   0  0  0  0  0  0  0  0  0  0  0  0
   -0.1642    0.0538    1.5835 H   0  0  0  0  0  0  0  0  0  0  0  0
   -0.1008   -1.3087    0.4956 H   0  0  0  0  0  0  0  0  0  0  0  0
    1.3449    0.0275   -1.0762 H   0  0  0  0  0  0  0  0  0  0  0  0
   -1.1832    0.0902   -1.3146 H   0  0  0  0  0  0  0  0  0  0  0  0
   -1.3265    1.4250   -0.1660 H   0  0  0  0  0  0  0  0  0  0  0  0
   -2.6742   -0.0305    1.3604 H   0  0  0  0  0  0  0  0  0  0  0  0
   -2.5642   -1.3450    0.1935 H   0  0  0  0  0  0  0  0  0  0  0  0
    1.4013    2.0868    1.1645 H   0  0  0  0  0  0  0  0  0  0  0  0
    0.6936    2.3190   -0.4396 H   0  0  0  0  0  0  0  0  0  0  0  0
   -3.8807    1.3693   -0.3143 H   0  0  0  0  0  0  0  0  0  0  0  0
   -3.7537    0.0729   -1.4993 H   0  0  0  0  0  0  0  0  0  0  0  0
    2.9558    1.9441   -1.4667 H   0  0  0  0  0  0  0  0  0  0  0  0
    2.9162    3.3238   -0.3561 H   0  0  0  0  0  0  0  0  0  0  0  0
    3.6514    1.8012    0.1606 H   0  0  0  0  0  0  0  0  0  0  0  0
   -5.1427   -1.4072   -0.0426 H   0  0  0  0  0  0  0  0  0  0  0  0
   -5.9889    0.0949   -0.4556 H   0  0  0  0  0  0  0  0  0  0  0  0
   -5.2710   -0.1028    1.1534 H   0  0  0  0  0  0  0  0  0  0  0  0
    3.5328   -1.9851    0.8178 H   0  0  0  0  0  0  0  0  0  0  0  0
  1  5  1  0  0  0  0
  1 11  1  0  0  0  0
  2 11  2  0  0  0  0
  3  4  1  0  0  0  0
  3  5  1  0  0  0  0
  3 12  1  0  0  0  0
  3 13  1  0  0  0  0
  4  6  1  0  0  0  0
  4 15  1  0  0  0  0
  4 16  1  0  0  0  0
  5  7  1  0  0  0  0
  5 14  1  0  0  0  0
  6  8  1  0  0  0  0
  6 17  1  0  0  0  0
  6 18  1  0  0  0  0
  7  9  1  0  0  0  0
  7 19  1  0  0  0  0
  7 20  1  0  0  0  0
  8 10  1  0  0  0  0
  8 21  1  0  0  0  0
  8 22  1  0  0  0  0
  9 23  1  0  0  0  0
  9 24  1  0  0  0  0
  9 25  1  0  0  0  0
 10 26  1  0  0  0  0
 10 27  1  0  0  0  0
 10 28  1  0  0  0  0
 11 29  1  0  0  0  0
M  END
> <PUBCHEM_COMPOUND_CID>
22757845

> <PUBCHEM_CONFORMER_RMSD>
0.6

> <PUBCHEM_CONFORMER_DIVERSEORDER>
1
208
132
38
268
191
74
263
106
305
9
266
235
59
226
170
229
248
93
22
177
192
277
228
14
288
237
246
267
219
142
92
300
242
140
164
52
100
254
293
284
182
130
138
292
11
41
91
206
273
223
95
175
115
227
151
257
195
88
213
298
265
255
154
270
297
119
201
211
189
159
4
26
272
258
7
252
126
245
234
166
85
49
139
146
155
199
193
152
225
218
275
183
69
97
251
240
190
30
3
136
262
33
249
307
156
304
202
203
10
66
180
121
220
117
70
250
109
207
238
308
216
172
29
131
157
184
214
285
125
215
247
209
101
169
306
105
174
232
171
162
143
90
135
51
110
99
256
8
137
289
303
103
200
89
173
18
12
231
141
79
241
2
15
42
291
290
176
224
294
56
116
72
243
296
17
76
276
61
65
261
133
129
260
253
244
96
64
37
204
188
148
75
104
302
21
81
239
185
280
299
122
279
221
58
144
271
19
168
259
35
165
82
295
197
286
32
6
98
48
194
5
53
60
62
67
179
87
94
13
123
210
112
167
301
124
84
236
274
113
43
102
20
128
68
54
281
47
287
45
269
217
39
57
31
73
230
222
282
283
187
111
118
63
150
278
16
34
40
83
205
55
28
186
46
160
44
120
80
178
77
145
86
23
161
50
71
108
163
134
78
36
114
264
158
107
147
27
233
196
212
127
24
149
198
25
153
181

> <PUBCHEM_MMFF94_PARTIAL_CHARGES>
5
1 -0.43
11 0.66
2 -0.57
29 0.06
5 0.28

> <PUBCHEM_EFFECTIVE_ROTOR_COUNT>
7

> <PUBCHEM_PHARMACOPHORE_FEATURES>
4
1 10 hydrophobe
1 2 acceptor
1 9 hydrophobe
4 3 4 6 8 hydrophobe

> <PUBCHEM_HEAVY_ATOM_COUNT>
11

> <PUBCHEM_ATOM_DEF_STEREO_COUNT>
0

> <PUBCHEM_ATOM_UDEF_STEREO_COUNT>
1

> <PUBCHEM_BOND_DEF_STEREO_COUNT>
0

> <PUBCHEM_BOND_UDEF_STEREO_COUNT>
0

> <PUBCHEM_ISOTOPIC_ATOM_COUNT>
0

> <PUBCHEM_COMPONENT_COUNT>
1

> <PUBCHEM_CACTVS_TAUTO_COUNT>
1

> <PUBCHEM_CONFORMER_ID>
015B41D500000001

> <PUBCHEM_MMFF94_ENERGY>
6.1112

> <PUBCHEM_FEATURE_SELFOVERLAP>
20.297

> <PUBCHEM_SHAPE_FINGERPRINT>
12346645 6 18411135874517183692
12616999 72 18336830904334283177
12932764 1 17489581307772401601
13380535 76 18190459544373483968
14251717 144 18411698781294182591
14252887 29 18271521988303737482
14325111 11 18335418002323425801
15477762 27 18412544275797784766
170605 34 18042120010864357849
18186145 218 17821725014559468665
20279233 1 17458064889140818353
20339313 130 18412544275797661449
20559304 39 18202562877893184720
20645477 70 18409727366020869991
20671657 53 18263926544534979643
20708731 107 18411984658923335188
20871998 22 18197213651187898738
23380061 81 18410014342686948721
3060560 45 18341056319336009276
449060 50 18115027536544896093
449060 62 18337675329285754533
522135 26 18411702088824955021
7364860 26 18413108381313647552
81539 233 18189336930206585916

> <PUBCHEM_SHAPE_MULTIPOLES>
214.64
7.91
1.99
0.76
11.38
0.09
0.02
-0.36
0.44
-3.25
0.36
-0.12
-0.09
0.11

> <PUBCHEM_SHAPE_SELFOVERLAP>
387.413

> <PUBCHEM_SHAPE_VOLUME>
137.8

> <PUBCHEM_COORDINATE_TYPE>
2
5
10

$$$$
