229377
  -OEChem-11232109193D

 32 31  0     0  0  0  0  0  0999 V2000
   -2.3298    0.4237    0.0312 O   0  0  0  0  0  0  0  0  0  0  0  0
   -1.2309   -1.6044    0.0272 O   0  0  0  0  0  0  0  0  0  0  0  0
    2.5556    0.5744    0.0129 C   0  0  0  0  0  0  0  0  0  0  0  0
    3.8379   -0.2590   -0.0324 C   0  0  0  0  0  0  0  0  0  0  0  0
    1.3115   -0.3190   -0.0112 C   0  0  0  0  0  0  0  0  0  0  0  0
    5.0805    0.6293    0.0203 C   0  0  0  0  0  0  0  0  0  0  0  0
    0.0138    0.4854    0.0614 C   0  0  0  0  0  0  0  0  0  0  0  0
    6.3569   -0.1931   -0.0576 C   0  0  0  0  0  0  0  0  0  0  0  0
   -1.2261   -0.3812    0.0476 C   0  0  0  0  0  0  0  0  0  0  0  0
   -3.5883   -0.2565   -0.0137 C   0  0  0  0  0  0  0  0  0  0  0  0
   -4.7051    0.7759   -0.0266 C   0  0  0  0  0  0  0  0  0  0  0  0
   -6.0760    0.1246   -0.0590 C   0  0  0  0  0  0  0  0  0  0  0  0
    2.5305    1.2615   -0.8414 H   0  0  0  0  0  0  0  0  0  0  0  0
    2.5473    1.1872    0.9225 H   0  0  0  0  0  0  0  0  0  0  0  0
    1.3135   -0.9267   -0.9249 H   0  0  0  0  0  0  0  0  0  0  0  0
    1.3496   -1.0224    0.8302 H   0  0  0  0  0  0  0  0  0  0  0  0
    3.8527   -0.9595    0.8115 H   0  0  0  0  0  0  0  0  0  0  0  0
    3.8520   -0.8589   -0.9505 H   0  0  0  0  0  0  0  0  0  0  0  0
    5.0829    1.2119    0.9489 H   0  0  0  0  0  0  0  0  0  0  0  0
    5.0633    1.3437   -0.8110 H   0  0  0  0  0  0  0  0  0  0  0  0
    0.0000    1.0775    0.9834 H   0  0  0  0  0  0  0  0  0  0  0  0
   -0.0380    1.1657   -0.7964 H   0  0  0  0  0  0  0  0  0  0  0  0
    6.4209   -0.8979    0.7775 H   0  0  0  0  0  0  0  0  0  0  0  0
    7.2329    0.4620   -0.0173 H   0  0  0  0  0  0  0  0  0  0  0  0
    6.4009   -0.7618   -0.9919 H   0  0  0  0  0  0  0  0  0  0  0  0
   -3.6814   -0.9016    0.8678 H   0  0  0  0  0  0  0  0  0  0  0  0
   -3.6343   -0.8730   -0.9191 H   0  0  0  0  0  0  0  0  0  0  0  0
   -4.6202    1.4206    0.8564 H   0  0  0  0  0  0  0  0  0  0  0  0
   -4.5854    1.4363   -0.8938 H   0  0  0  0  0  0  0  0  0  0  0  0
   -6.2303   -0.5090    0.8203 H   0  0  0  0  0  0  0  0  0  0  0  0
   -6.8591    0.8891   -0.0682 H   0  0  0  0  0  0  0  0  0  0  0  0
   -6.1951   -0.4944   -0.9539 H   0  0  0  0  0  0  0  0  0  0  0  0
  1  9  1  0  0  0  0
  1 10  1  0  0  0  0
  2  9  2  0  0  0  0
  3  4  1  0  0  0  0
  3  5  1  0  0  0  0
  3 13  1  0  0  0  0
  3 14  1  0  0  0  0
  4  6  1  0  0  0  0
  4 17  1  0  0  0  0
  4 18  1  0  0  0  0
  5  7  1  0  0  0  0
  5 15  1  0  0  0  0
  5 16  1  0  0  0  0
  6  8  1  0  0  0  0
  6 19  1  0  0  0  0
  6 20  1  0  0  0  0
  7  9  1  0  0  0  0
  7 21  1  0  0  0  0
  7 22  1  0  0  0  0
  8 23  1  0  0  0  0
  8 24  1  0  0  0  0
  8 25  1  0  0  0  0
 10 11  1  0  0  0  0
 10 26  1  0  0  0  0
 10 27  1  0  0  0  0
 11 12  1  0  0  0  0
 11 28  1  0  0  0  0
 11 29  1  0  0  0  0
 12 30  1  0  0  0  0
 12 31  1  0  0  0  0
 12 32  1  0  0  0  0
M  END
> <PUBCHEM_COMPOUND_CID>
229377

> <PUBCHEM_CONFORMER_RMSD>
0.8

> <PUBCHEM_CONFORMER_DIVERSEORDER>
1
299
3
240
133
235
172
218
156
289
51
266
48
200
302
224
150
207
275
178
223
58
130
146
118
309
7
282
243
5
255
60
177
127
89
52
24
251
31
316
296
92
8
78
312
208
159
253
85
247
210
168
154
90
215
33
264
57
13
234
314
4
74
303
45
140
124
293
306
279
59
205
292
191
83
198
134
142
189
67
72
17
136
228
23
216
71
315
298
11
18
263
256
184
29
115
236
196
262
258
84
132
97
9
86
297
47
158
308
66
2
260
46
271
147
155
35
239
141
54
148
277
138
220
248
151
70
244
10
242
82
190
93
257
272
21
232
231
165
73
153
14
19
129
304
179
229
270
105
182
249
22
201
261
241
170
88
214
20
199
217
56
113
176
53
281
6
39
287
278
300
226
166
233
160
38
213
76
237
273
40
12
301
187
49
267
117
227
195
295
250
283
307
219
238
222
171
203
26
16
65
294
145
43
91
28
44
183
99
37
79
209
169
107
259
123
254
167
55
174
230
175
204
42
192
122
135
290
15
163
212
202
120
100
246
311
276
25
102
80
112
128
75
152
186
98
27
221
61
114
106
34
188
121
131
269
110
313
62
144
95
94
185
109
41
87
108
288
274
50
36
193
96
164
206
162
104
245
211
194
139
32
280
197
161
111
101
181
64
173
119
63
157
137
125
149
252
284
180
305
285
126
225
268
116
291
77
30
286
81
69
103
265
143
310
68

> <PUBCHEM_MMFF94_PARTIAL_CHARGES>
5
1 -0.43
10 0.28
2 -0.57
7 0.06
9 0.66

> <PUBCHEM_EFFECTIVE_ROTOR_COUNT>
8

> <PUBCHEM_PHARMACOPHORE_FEATURES>
4
1 12 hydrophobe
1 2 acceptor
1 8 hydrophobe
5 3 4 5 6 7 hydrophobe

> <PUBCHEM_HEAVY_ATOM_COUNT>
12

> <PUBCHEM_ATOM_DEF_STEREO_COUNT>
0

> <PUBCHEM_ATOM_UDEF_STEREO_COUNT>
0

> <PUBCHEM_BOND_DEF_STEREO_COUNT>
0

> <PUBCHEM_BOND_UDEF_STEREO_COUNT>
0

> <PUBCHEM_ISOTOPIC_ATOM_COUNT>
0

> <PUBCHEM_COMPONENT_COUNT>
1

> <PUBCHEM_CACTVS_TAUTO_COUNT>
1

> <PUBCHEM_CONFORMER_ID>
0003800100000001

> <PUBCHEM_MMFF94_ENERGY>
-0.1642

> <PUBCHEM_FEATURE_SELFOVERLAP>
20.297

> <PUBCHEM_SHAPE_FINGERPRINT>
11401426 45 18131631192415018941
12091667 2 18202283602693765477
12714333 28 16200150988805789560
12815109 37 17060338526582204480
13533116 47 17845935126753335734
14123238 8 17894348877880010268
14251764 46 18411980260576156660
15048467 5 18334295392367099084
15242439 84 18131070450523122304
15501527 16 18408886247893633609
17834072 33 17846213401435604844
17834072 8 18410856563998144972
17834076 25 18273777146702213404
187816 3 17203610384876088771
20279233 1 17703801331533926102
20281389 69 18187080650657842092
20645477 56 18408039619444701892
20645477 70 17417538999776353446
20767249 213 18261111889246682004
23218964 4 18408322177154058656
23402539 116 18201995543025879173
23521765 1 18341894090839429772
366044 4 18410855464856074579
42788 4 18411418414487489088
8209 1 18413107259989443301

> <PUBCHEM_SHAPE_MULTIPOLES>
235.22
15.26
0.95
0.6
2.87
0.18
0
-1.83
0.42
-0.2
-0.01
0.03
-0.01
0.03

> <PUBCHEM_SHAPE_SELFOVERLAP>
424.995

> <PUBCHEM_SHAPE_VOLUME>
151.6

> <PUBCHEM_COORDINATE_TYPE>
2
5
10

$$$$
