22952976
  -OEChem-11232109233D

 15 14  0     0  0  0  0  0  0999 V2000
   -0.9297   -0.4645    1.1547 S   0  0  0  0  0  0  0  0  0  0  0  0
   -1.9795   -0.6007   -0.6091 S   0  0  0  0  0  0  0  0  0  0  0  0
    1.5115   -1.2099   -0.3278 O   0  0  0  0  0  0  0  0  0  0  0  0
    0.3957    0.6800    0.7079 C   0  0  0  0  0  0  0  0  0  0  0  0
    1.5122   -0.0124   -0.0467 C   0  0  0  0  0  0  0  0  0  0  0  0
    2.6689    0.8667   -0.4515 C   0  0  0  0  0  0  0  0  0  0  0  0
   -3.1791    0.7409   -0.4275 C   0  0  0  0  0  0  0  0  0  0  0  0
    0.0075    1.5157    0.1186 H   0  0  0  0  0  0  0  0  0  0  0  0
    0.8188    1.0780    1.6354 H   0  0  0  0  0  0  0  0  0  0  0  0
    3.1325    1.2957    0.4402 H   0  0  0  0  0  0  0  0  0  0  0  0
    3.4151    0.2727   -0.9865 H   0  0  0  0  0  0  0  0  0  0  0  0
    2.3113    1.6613   -1.1111 H   0  0  0  0  0  0  0  0  0  0  0  0
   -3.8151    0.7724   -1.3164 H   0  0  0  0  0  0  0  0  0  0  0  0
   -2.6703    1.7042   -0.3363 H   0  0  0  0  0  0  0  0  0  0  0  0
   -3.8168    0.5720    0.4445 H   0  0  0  0  0  0  0  0  0  0  0  0
  1  2  1  0  0  0  0
  1  4  1  0  0  0  0
  2  7  1  0  0  0  0
  3  5  2  0  0  0  0
  4  5  1  0  0  0  0
  4  8  1  0  0  0  0
  4  9  1  0  0  0  0
  5  6  1  0  0  0  0
  6 10  1  0  0  0  0
  6 11  1  0  0  0  0
  6 12  1  0  0  0  0
  7 13  1  0  0  0  0
  7 14  1  0  0  0  0
  7 15  1  0  0  0  0
M  END
> <PUBCHEM_COMPOUND_CID>
22952976

> <PUBCHEM_CONFORMER_RMSD>
0.4

> <PUBCHEM_CONFORMER_DIVERSEORDER>
4
89
72
15
81
112
41
70
78
90
99
37
42
110
35
2
48
68
50
100
67
98
43
97
102
76
27
45
74
80
66
5
93
46
84
75
114
20
79
91
109
40
7
49
30
18
85
51
24
31
25
88
87
34
29
107
1
96
47
82
92
54
86
56
17
113
23
77
53
44
55
10
83
19
94
3
71
6
73
106
101
65
103
111
8
21
61
104
14
69
38
52
60
13
36
28
9
26
108
58
64
105
57
39
22
95
12
11
59
63
16
62
33
32

> <PUBCHEM_MMFF94_PARTIAL_CHARGES>
7
1 -0.23
2 -0.23
3 -0.57
4 0.29
5 0.45
6 0.06
7 0.23

> <PUBCHEM_EFFECTIVE_ROTOR_COUNT>
3

> <PUBCHEM_PHARMACOPHORE_FEATURES>
2
1 3 acceptor
1 7 hydrophobe

> <PUBCHEM_HEAVY_ATOM_COUNT>
7

> <PUBCHEM_ATOM_DEF_STEREO_COUNT>
0

> <PUBCHEM_ATOM_UDEF_STEREO_COUNT>
0

> <PUBCHEM_BOND_DEF_STEREO_COUNT>
0

> <PUBCHEM_BOND_UDEF_STEREO_COUNT>
0

> <PUBCHEM_ISOTOPIC_ATOM_COUNT>
0

> <PUBCHEM_COMPONENT_COUNT>
1

> <PUBCHEM_CACTVS_TAUTO_COUNT>
3

> <PUBCHEM_CONFORMER_ID>
015E3C1000000004

> <PUBCHEM_MMFF94_ENERGY>
-0.1785

> <PUBCHEM_FEATURE_SELFOVERLAP>
10.148

> <PUBCHEM_SHAPE_FINGERPRINT>
10857977 72 13190347850879902869
12897270 3 18202282536792952253
14390081 3 17458622311492480341
15310529 11 18411698803117061807
20211469 16 13470399024346478205
20651381 22 9294991497263530915
20653085 51 18262807259273535113
21293036 1 17632015350684439077
23552333 60 17989203707506676986
23552449 11 14548150187358558739
29004967 10 18341338871906223858

> <PUBCHEM_SHAPE_MULTIPOLES>
145.89
4.42
1.12
1.04
0.94
0.02
0.15
-1.56
-1.05
0.01
-0.03
0.2
0.16
0.15

> <PUBCHEM_SHAPE_SELFOVERLAP>
235.815

> <PUBCHEM_SHAPE_VOLUME>
103.8

> <PUBCHEM_COORDINATE_TYPE>
2
5
10

$$$$
