23039305
  -OEChem-11232109073D

 22 21  0     1  0  0  0  0  0999 V2000
   -0.9898    0.3436    0.6566 S   0  0  0  0  0  0  0  0  0  0  0  0
    3.4471    0.9831    0.0725 O   0  0  0  0  0  0  0  0  0  0  0  0
    0.1169   -0.7926   -0.2527 C   0  0  1  0  0  0  0  0  0  0  0  0
    1.5937   -0.5348    0.0749 C   0  0  0  0  0  0  0  0  0  0  0  0
   -0.2719   -2.2294    0.0877 C   0  0  0  0  0  0  0  0  0  0  0  0
    2.0666    0.8781   -0.2542 C   0  0  0  0  0  0  0  0  0  0  0  0
   -2.4153    0.2401   -0.4468 C   0  0  0  0  0  0  0  0  0  0  0  0
   -3.5474    1.1120    0.0620 C   0  0  0  0  0  0  0  0  0  0  0  0
   -0.0228   -0.6280   -1.3275 H   0  0  0  0  0  0  0  0  0  0  0  0
    1.7945   -0.7427    1.1349 H   0  0  0  0  0  0  0  0  0  0  0  0
    2.2196   -1.2486   -0.4774 H   0  0  0  0  0  0  0  0  0  0  0  0
   -0.1704   -2.4357    1.1594 H   0  0  0  0  0  0  0  0  0  0  0  0
    0.3815   -2.9323   -0.4419 H   0  0  0  0  0  0  0  0  0  0  0  0
   -1.2973   -2.4656   -0.2124 H   0  0  0  0  0  0  0  0  0  0  0  0
    1.9445    1.0894   -1.3213 H   0  0  0  0  0  0  0  0  0  0  0  0
    1.5343    1.6378    0.3238 H   0  0  0  0  0  0  0  0  0  0  0  0
   -2.1248    0.5726   -1.4484 H   0  0  0  0  0  0  0  0  0  0  0  0
   -2.7676   -0.7927   -0.5136 H   0  0  0  0  0  0  0  0  0  0  0  0
   -3.8856    0.7941    1.0541 H   0  0  0  0  0  0  0  0  0  0  0  0
   -3.2516    2.1653    0.1155 H   0  0  0  0  0  0  0  0  0  0  0  0
   -4.4044    1.0441   -0.6165 H   0  0  0  0  0  0  0  0  0  0  0  0
    3.7265    1.8858   -0.1567 H   0  0  0  0  0  0  0  0  0  0  0  0
  1  3  1  0  0  0  0
  1  7  1  0  0  0  0
  2  6  1  0  0  0  0
  2 22  1  0  0  0  0
  3  4  1  0  0  0  0
  3  5  1  0  0  0  0
  3  9  1  0  0  0  0
  4  6  1  0  0  0  0
  4 10  1  0  0  0  0
  4 11  1  0  0  0  0
  5 12  1  0  0  0  0
  5 13  1  0  0  0  0
  5 14  1  0  0  0  0
  6 15  1  0  0  0  0
  6 16  1  0  0  0  0
  7  8  1  0  0  0  0
  7 17  1  0  0  0  0
  7 18  1  0  0  0  0
  8 19  1  0  0  0  0
  8 20  1  0  0  0  0
  8 21  1  0  0  0  0
M  END
> <PUBCHEM_COMPOUND_CID>
23039305

> <PUBCHEM_CONFORMER_RMSD>
0.6

> <PUBCHEM_CONFORMER_DIVERSEORDER>
2
66
43
65
42
44
59
63
17
7
36
64
10
46
51
49
55
52
61
6
60
54
62
26
57
9
58
32
20
18
45
37
24
21
25
56
53
23
28
39
30
48
19
11
50
40
47
33
22
13
16
38
35
41
34
27
29
8
31
3
15
4
14
12
5
1

> <PUBCHEM_MMFF94_PARTIAL_CHARGES>
6
1 -0.46
2 -0.68
22 0.4
3 0.23
6 0.28
7 0.23

> <PUBCHEM_EFFECTIVE_ROTOR_COUNT>
4

> <PUBCHEM_PHARMACOPHORE_FEATURES>
5
1 2 acceptor
1 2 donor
1 5 hydrophobe
1 8 hydrophobe
4 1 3 4 7 hydrophobe

> <PUBCHEM_HEAVY_ATOM_COUNT>
8

> <PUBCHEM_ATOM_DEF_STEREO_COUNT>
0

> <PUBCHEM_ATOM_UDEF_STEREO_COUNT>
1

> <PUBCHEM_BOND_DEF_STEREO_COUNT>
0

> <PUBCHEM_BOND_UDEF_STEREO_COUNT>
0

> <PUBCHEM_ISOTOPIC_ATOM_COUNT>
0

> <PUBCHEM_COMPONENT_COUNT>
1

> <PUBCHEM_CACTVS_TAUTO_COUNT>
1

> <PUBCHEM_CONFORMER_ID>
015F8D4900000002

> <PUBCHEM_MMFF94_ENERGY>
8.8076

> <PUBCHEM_FEATURE_SELFOVERLAP>
25.523

> <PUBCHEM_SHAPE_FINGERPRINT>
10149128 76 18410013221394503221
12897270 3 16271926012692661293
14325111 11 18410573985314994455
14390081 3 18410575054978369349
15775835 57 18413388726481889869
170605 34 18340770347338485695
18342897 55 18411410692494902901
20653085 51 18335712692566366108
21040471 1 18410856594184345642
21293036 1 17775001314775631369
23211744 41 17676765354081941795
23235685 24 18412259540772019928
23552423 10 17983014449585827755

> <PUBCHEM_SHAPE_MULTIPOLES>
162.62
5.03
1.72
0.73
0.85
1.05
0.04
-3.38
-0.23
-0.24
0.03
0.14
-0.02
-0.06

> <PUBCHEM_SHAPE_SELFOVERLAP>
272.293

> <PUBCHEM_SHAPE_VOLUME>
111.7

> <PUBCHEM_COORDINATE_TYPE>
2
5
10

$$$$
