230525
  -OEChem-11232109443D

 30 31  0     1  0  0  0  0  0999 V2000
   -1.9829    1.3537    0.0119 O   0  0  0  0  0  0  0  0  0  0  0  0
   -1.2039   -0.8369    0.3463 O   0  0  0  0  0  0  0  0  0  0  0  0
   -3.0199    0.4160   -0.2992 C   0  0  1  0  0  0  0  0  0  0  0  0
   -2.6251   -0.8034    0.5104 C   0  0  1  0  0  0  0  0  0  0  0  0
   -0.8269    0.5444    0.2691 C   0  0  0  0  0  0  0  0  0  0  0  0
    0.1895    0.7265   -0.8415 C   0  0  0  0  0  0  0  0  0  0  0  0
   -4.3728    0.9956    0.0610 C   0  0  0  0  0  0  0  0  0  0  0  0
   -3.2383   -2.1014    0.0255 C   0  0  0  0  0  0  0  0  0  0  0  0
    1.5764    0.3217   -0.4098 C   0  0  0  0  0  0  0  0  0  0  0  0
    2.4139    1.2664    0.1640 C   0  0  0  0  0  0  0  0  0  0  0  0
    1.9916   -0.9888   -0.5931 C   0  0  0  0  0  0  0  0  0  0  0  0
    3.6968    0.8921    0.5636 C   0  0  0  0  0  0  0  0  0  0  0  0
    3.2745   -1.3631   -0.1933 C   0  0  0  0  0  0  0  0  0  0  0  0
    4.1270   -0.4226    0.3850 C   0  0  0  0  0  0  0  0  0  0  0  0
   -2.9668    0.2168   -1.3768 H   0  0  0  0  0  0  0  0  0  0  0  0
   -2.8297   -0.6615    1.5790 H   0  0  0  0  0  0  0  0  0  0  0  0
   -0.4264    0.8509    1.2425 H   0  0  0  0  0  0  0  0  0  0  0  0
    0.2081    1.7746   -1.1687 H   0  0  0  0  0  0  0  0  0  0  0  0
   -0.1024    0.1517   -1.7304 H   0  0  0  0  0  0  0  0  0  0  0  0
   -4.5517    1.9188   -0.5004 H   0  0  0  0  0  0  0  0  0  0  0  0
   -5.1809    0.2919   -0.1578 H   0  0  0  0  0  0  0  0  0  0  0  0
   -4.4163    1.2632    1.1224 H   0  0  0  0  0  0  0  0  0  0  0  0
   -4.3272   -2.0925    0.1270 H   0  0  0  0  0  0  0  0  0  0  0  0
   -2.9834   -2.2894   -1.0233 H   0  0  0  0  0  0  0  0  0  0  0  0
   -2.8406   -2.9459    0.5985 H   0  0  0  0  0  0  0  0  0  0  0  0
    2.0873    2.2921    0.3095 H   0  0  0  0  0  0  0  0  0  0  0  0
    1.3353   -1.7289   -1.0420 H   0  0  0  0  0  0  0  0  0  0  0  0
    4.3605    1.6241    1.0145 H   0  0  0  0  0  0  0  0  0  0  0  0
    3.6095   -2.3868   -0.3321 H   0  0  0  0  0  0  0  0  0  0  0  0
    5.1258   -0.7142    0.6965 H   0  0  0  0  0  0  0  0  0  0  0  0
  1  3  1  0  0  0  0
  1  5  1  0  0  0  0
  2  4  1  0  0  0  0
  2  5  1  0  0  0  0
  3  4  1  0  0  0  0
  3  7  1  0  0  0  0
  3 15  1  0  0  0  0
  4  8  1  0  0  0  0
  4 16  1  0  0  0  0
  5  6  1  0  0  0  0
  5 17  1  0  0  0  0
  6  9  1  0  0  0  0
  6 18  1  0  0  0  0
  6 19  1  0  0  0  0
  7 20  1  0  0  0  0
  7 21  1  0  0  0  0
  7 22  1  0  0  0  0
  8 23  1  0  0  0  0
  8 24  1  0  0  0  0
  8 25  1  0  0  0  0
  9 10  2  0  0  0  0
  9 11  1  0  0  0  0
 10 12  1  0  0  0  0
 10 26  1  0  0  0  0
 11 13  2  0  0  0  0
 11 27  1  0  0  0  0
 12 14  2  0  0  0  0
 12 28  1  0  0  0  0
 13 14  1  0  0  0  0
 13 29  1  0  0  0  0
 14 30  1  0  0  0  0
M  END
> <PUBCHEM_COMPOUND_CID>
230525

> <PUBCHEM_CONFORMER_RMSD>
0.6

> <PUBCHEM_CONFORMER_DIVERSEORDER>
1
3
8
9
13
12
10
5
7
11
6
2
4

> <PUBCHEM_MMFF94_PARTIAL_CHARGES>
17
1 -0.56
10 -0.15
11 -0.15
12 -0.15
13 -0.15
14 -0.15
2 -0.56
26 0.15
27 0.15
28 0.15
29 0.15
3 0.28
30 0.15
4 0.28
5 0.56
6 0.14
9 -0.14

> <PUBCHEM_EFFECTIVE_ROTOR_COUNT>
3

> <PUBCHEM_PHARMACOPHORE_FEATURES>
4
1 1 acceptor
1 2 acceptor
5 1 2 3 4 5 rings
6 9 10 11 12 13 14 rings

> <PUBCHEM_HEAVY_ATOM_COUNT>
14

> <PUBCHEM_ATOM_DEF_STEREO_COUNT>
0

> <PUBCHEM_ATOM_UDEF_STEREO_COUNT>
2

> <PUBCHEM_BOND_DEF_STEREO_COUNT>
0

> <PUBCHEM_BOND_UDEF_STEREO_COUNT>
0

> <PUBCHEM_ISOTOPIC_ATOM_COUNT>
0

> <PUBCHEM_COMPONENT_COUNT>
1

> <PUBCHEM_CACTVS_TAUTO_COUNT>
1

> <PUBCHEM_CONFORMER_ID>
0003847D00000001

> <PUBCHEM_MMFF94_ENERGY>
33.3685

> <PUBCHEM_FEATURE_SELFOVERLAP>
20.338

> <PUBCHEM_SHAPE_FINGERPRINT>
10608611 8 18411696586666302968
11132069 177 18334855017466966601
11615757 297 16845573149179348960
12251169 10 18411698777341898804
12346177 29 18259977189394935751
12500047 106 18411975862730092623
12932764 1 17560799986901115300
13296908 3 18409451405259746030
13675066 3 18113344106817172337
14144814 61 18413110550134787184
14325111 11 18410856581172739284
15196674 1 18410293631451608466
15219456 202 18413671322344571544
15309172 13 16343707646402053878
15375358 24 18342737390688557967
17834072 14 18411415137448495871
18175812 5 18412262839512462980
18186145 218 14779551218143277668
19050596 39 18413106173542052480
200 152 17703783721893608301
20201158 50 18341051835063000090
20279233 1 18342461430397101303
20281407 28 18261116249007557678
20281475 54 18259987059203408094
20361792 2 16370727045285433118
20528008 55 18342453733662745452
20645477 56 18335139774326543493
20645477 70 18059293162766934590
21501925 9 18335418027655412158
22169311 21 18410851062092252271
22485316 2 18260827090223662602
23402539 116 18335410283655284781
23559900 14 18413105044255719536
26918003 58 18343298150224424160
42 15 18333452023381470560
5104073 3 18411418431635567810
57812782 119 18413387626969995620
69090 78 18412539890936648191
74978 22 15936985135571284552
9709674 26 18410298042177630898

> <PUBCHEM_SHAPE_MULTIPOLES>
276.37
8.33
1.67
0.77
0.67
0.53
-0.04
0.42
1
0.67
0.01
-0.15
-0.01
0.36

> <PUBCHEM_SHAPE_SELFOVERLAP>
573.988

> <PUBCHEM_SHAPE_VOLUME>
158.5

> <PUBCHEM_COORDINATE_TYPE>
2
5
10

$$$$
