23279512
  -OEChem-11232108523D

 22 22  0     0  0  0  0  0  0999 V2000
    0.5020    0.2730   -0.3210 N   0  0  0  0  0  0  0  0  0  0  0  0
   -1.9167    0.1168    0.3436 C   0  0  0  0  0  0  0  0  0  0  0  0
   -0.8769    0.5698   -0.6965 C   0  0  0  0  0  0  0  0  0  0  0  0
   -1.8677   -1.3934    0.5857 C   0  0  0  0  0  0  0  0  0  0  0  0
   -3.3183    0.5216   -0.1176 C   0  0  0  0  0  0  0  0  0  0  0  0
    1.1728   -0.8825   -0.6267 C   0  0  0  0  0  0  0  0  0  0  0  0
    1.3244    1.1067    0.3909 C   0  0  0  0  0  0  0  0  0  0  0  0
    2.4421   -0.7852   -0.1011 C   0  0  0  0  0  0  0  0  0  0  0  0
    2.5382    0.4733    0.5426 C   0  0  0  0  0  0  0  0  0  0  0  0
   -1.7108    0.6199    1.2971 H   0  0  0  0  0  0  0  0  0  0  0  0
   -1.0549    0.0902   -1.6670 H   0  0  0  0  0  0  0  0  0  0  0  0
   -0.9363    1.6537   -0.8544 H   0  0  0  0  0  0  0  0  0  0  0  0
   -1.9675   -1.9516   -0.3513 H   0  0  0  0  0  0  0  0  0  0  0  0
   -0.9333   -1.6924    1.0699 H   0  0  0  0  0  0  0  0  0  0  0  0
   -2.6824   -1.7044    1.2492 H   0  0  0  0  0  0  0  0  0  0  0  0
   -3.5826    0.0342   -1.0622 H   0  0  0  0  0  0  0  0  0  0  0  0
   -4.0697    0.2438    0.6292 H   0  0  0  0  0  0  0  0  0  0  0  0
   -3.3806    1.6049   -0.2653 H   0  0  0  0  0  0  0  0  0  0  0  0
    0.6991   -1.6744   -1.1913 H   0  0  0  0  0  0  0  0  0  0  0  0
    0.9823    2.0747    0.7313 H   0  0  0  0  0  0  0  0  0  0  0  0
    3.2137   -1.5385   -0.1749 H   0  0  0  0  0  0  0  0  0  0  0  0
    3.3977    0.8748    1.0607 H   0  0  0  0  0  0  0  0  0  0  0  0
  1  3  1  0  0  0  0
  1  6  1  0  0  0  0
  1  7  1  0  0  0  0
  2  3  1  0  0  0  0
  2  4  1  0  0  0  0
  2  5  1  0  0  0  0
  2 10  1  0  0  0  0
  3 11  1  0  0  0  0
  3 12  1  0  0  0  0
  4 13  1  0  0  0  0
  4 14  1  0  0  0  0
  4 15  1  0  0  0  0
  5 16  1  0  0  0  0
  5 17  1  0  0  0  0
  5 18  1  0  0  0  0
  6  8  2  0  0  0  0
  6 19  1  0  0  0  0
  7  9  2  0  0  0  0
  7 20  1  0  0  0  0
  8  9  1  0  0  0  0
  8 21  1  0  0  0  0
  9 22  1  0  0  0  0
M  END
> <PUBCHEM_COMPOUND_CID>
23279512

> <PUBCHEM_CONFORMER_RMSD>
0.4

> <PUBCHEM_CONFORMER_DIVERSEORDER>
1
3
2

> <PUBCHEM_MMFF94_PARTIAL_CHARGES>
10
1 0.05
19 0.15
20 0.15
21 0.15
22 0.15
3 0.26
6 -0.3
7 -0.3
8 -0.15
9 -0.15

> <PUBCHEM_EFFECTIVE_ROTOR_COUNT>
2

> <PUBCHEM_PHARMACOPHORE_FEATURES>
3
1 1 cation
3 2 4 5 hydrophobe
5 1 6 7 8 9 rings

> <PUBCHEM_HEAVY_ATOM_COUNT>
9

> <PUBCHEM_ATOM_DEF_STEREO_COUNT>
0

> <PUBCHEM_ATOM_UDEF_STEREO_COUNT>
0

> <PUBCHEM_BOND_DEF_STEREO_COUNT>
0

> <PUBCHEM_BOND_UDEF_STEREO_COUNT>
0

> <PUBCHEM_ISOTOPIC_ATOM_COUNT>
0

> <PUBCHEM_COMPONENT_COUNT>
1

> <PUBCHEM_CACTVS_TAUTO_COUNT>
1

> <PUBCHEM_CONFORMER_ID>
0163379800000001

> <PUBCHEM_MMFF94_ENERGY>
5.1592

> <PUBCHEM_FEATURE_SELFOVERLAP>
15.223

> <PUBCHEM_SHAPE_FINGERPRINT>
10857977 72 18335134353481340248
11062470 55 18130785642525364665
12932741 1 18341902899896455839
12932764 1 16515397486606780013
14325111 11 18413106160831178405
20201158 50 18412825755000832483
21040471 1 17986947638827633420
21293036 1 10953747660151389378
29004967 10 18343022177206321072
3248919 1 18409445907828220709
369184 2 18131912667713482971

> <PUBCHEM_SHAPE_MULTIPOLES>
180.23
4.57
1.23
0.82
1.65
0.23
-0.01
-0.13
0.44
0.01
0.1
-0.01
0.03
0.46

> <PUBCHEM_SHAPE_SELFOVERLAP>
356.338

> <PUBCHEM_SHAPE_VOLUME>
109.1

> <PUBCHEM_COORDINATE_TYPE>
2
5
10

$$$$
