234237
  -OEChem-11232108513D

 36 35  0     1  0  0  0  0  0999 V2000
   -0.4976    0.7111    1.4558 O   0  0  0  0  0  0  0  0  0  0  0  0
   -3.3192   -0.3005   -0.3901 O   0  0  0  0  0  0  0  0  0  0  0  0
   -5.4112    0.0224    0.5352 O   0  0  0  0  0  0  0  0  0  0  0  0
    0.8961    0.8214   -0.4957 C   0  0  0  0  0  0  0  0  0  0  0  0
    1.9970   -0.0050    0.1811 C   0  0  0  0  0  0  0  0  0  0  0  0
   -0.4988    0.4859    0.0489 C   0  0  2  0  0  0  0  0  0  0  0  0
    3.3735    0.3274   -0.4005 C   0  0  0  0  0  0  0  0  0  0  0  0
    4.5166   -0.4509    0.2576 C   0  0  0  0  0  0  0  0  0  0  0  0
   -1.5693    1.3573   -0.6271 C   0  0  0  0  0  0  0  0  0  0  0  0
    5.8825   -0.1743   -0.3716 C   0  0  0  0  0  0  0  0  0  0  0  0
   -2.9871    1.0574   -0.1445 C   0  0  0  0  0  0  0  0  0  0  0  0
    6.9698   -1.0240    0.2685 C   0  0  0  0  0  0  0  0  0  0  0  0
   -4.5714   -0.6897    0.0015 C   0  0  0  0  0  0  0  0  0  0  0  0
   -4.7809   -2.1386   -0.3190 C   0  0  0  0  0  0  0  0  0  0  0  0
    0.9187    0.6515   -1.5788 H   0  0  0  0  0  0  0  0  0  0  0  0
    1.1086    1.8845   -0.3246 H   0  0  0  0  0  0  0  0  0  0  0  0
    1.7904   -1.0738    0.0501 H   0  0  0  0  0  0  0  0  0  0  0  0
    2.0167    0.1949    1.2583 H   0  0  0  0  0  0  0  0  0  0  0  0
   -0.7200   -0.5737   -0.1259 H   0  0  0  0  0  0  0  0  0  0  0  0
    3.5659    1.4020   -0.2915 H   0  0  0  0  0  0  0  0  0  0  0  0
    3.3684    0.1144   -1.4768 H   0  0  0  0  0  0  0  0  0  0  0  0
    4.2999   -1.5243    0.1876 H   0  0  0  0  0  0  0  0  0  0  0  0
    4.5515   -0.2050    1.3262 H   0  0  0  0  0  0  0  0  0  0  0  0
   -1.5219    1.1943   -1.7107 H   0  0  0  0  0  0  0  0  0  0  0  0
   -1.3610    2.4167   -0.4350 H   0  0  0  0  0  0  0  0  0  0  0  0
    5.8466   -0.3876   -1.4462 H   0  0  0  0  0  0  0  0  0  0  0  0
    6.1345    0.8863   -0.2589 H   0  0  0  0  0  0  0  0  0  0  0  0
   -3.6901    1.7051   -0.6818 H   0  0  0  0  0  0  0  0  0  0  0  0
   -3.0706    1.2680    0.9282 H   0  0  0  0  0  0  0  0  0  0  0  0
   -0.0637   -0.0493    1.8781 H   0  0  0  0  0  0  0  0  0  0  0  0
    7.9388   -0.8095   -0.1930 H   0  0  0  0  0  0  0  0  0  0  0  0
    6.7613   -2.0909    0.1401 H   0  0  0  0  0  0  0  0  0  0  0  0
    7.0502   -0.8156    1.3401 H   0  0  0  0  0  0  0  0  0  0  0  0
   -4.0463   -2.7459    0.2156 H   0  0  0  0  0  0  0  0  0  0  0  0
   -4.6984   -2.2948   -1.3975 H   0  0  0  0  0  0  0  0  0  0  0  0
   -5.7821   -2.4402    0.0017 H   0  0  0  0  0  0  0  0  0  0  0  0
  1  6  1  0  0  0  0
  1 30  1  0  0  0  0
  2 11  1  0  0  0  0
  2 13  1  0  0  0  0
  3 13  2  0  0  0  0
  4  5  1  0  0  0  0
  4  6  1  0  0  0  0
  4 15  1  0  0  0  0
  4 16  1  0  0  0  0
  5  7  1  0  0  0  0
  5 17  1  0  0  0  0
  5 18  1  0  0  0  0
  6  9  1  0  0  0  0
  6 19  1  0  0  0  0
  7  8  1  0  0  0  0
  7 20  1  0  0  0  0
  7 21  1  0  0  0  0
  8 10  1  0  0  0  0
  8 22  1  0  0  0  0
  8 23  1  0  0  0  0
  9 11  1  0  0  0  0
  9 24  1  0  0  0  0
  9 25  1  0  0  0  0
 10 12  1  0  0  0  0
 10 26  1  0  0  0  0
 10 27  1  0  0  0  0
 11 28  1  0  0  0  0
 11 29  1  0  0  0  0
 12 31  1  0  0  0  0
 12 32  1  0  0  0  0
 12 33  1  0  0  0  0
 13 14  1  0  0  0  0
 14 34  1  0  0  0  0
 14 35  1  0  0  0  0
 14 36  1  0  0  0  0
M  END
> <PUBCHEM_COMPOUND_CID>
234237

> <PUBCHEM_CONFORMER_RMSD>
1

> <PUBCHEM_CONFORMER_DIVERSEORDER>
5
513
49
938
71
12
351
8
152
930
902
797
308
853
870
876
35
31
1
149
13
403
807
620
25
267
903
463
926
7
311
210
425
192
33
42
490
223
278
32
293
696
174
247
520
763
201
4
866
276
46
678
445
2
34
916
117
118
16
751
243
240
17
14
392
82
422
131
85
588
205
496
114
361
20
770
185
567
774
453
146
150
94
305
81
166
43
568
30
378
395
231
10
420
508
15
190
867
498
371
364
514
525
565
393
798
60
173
470
877
18
138
892
266
603
72
522
622
292
234
558
22
627
123
148
406
786
128
169
77
151
56
135
404
101
560
918
923
295
306
136
250
319
181
587
285
255
802
501
615
661
172
249
681
450
233
70
726
45
554

> <PUBCHEM_MMFF94_PARTIAL_CHARGES>
8
1 -0.68
11 0.28
13 0.66
14 0.06
2 -0.43
3 -0.57
30 0.4
6 0.28

> <PUBCHEM_EFFECTIVE_ROTOR_COUNT>
9

> <PUBCHEM_PHARMACOPHORE_FEATURES>
5
1 1 acceptor
1 1 donor
1 12 hydrophobe
1 3 acceptor
5 4 5 7 8 10 hydrophobe

> <PUBCHEM_HEAVY_ATOM_COUNT>
14

> <PUBCHEM_ATOM_DEF_STEREO_COUNT>
0

> <PUBCHEM_ATOM_UDEF_STEREO_COUNT>
1

> <PUBCHEM_BOND_DEF_STEREO_COUNT>
0

> <PUBCHEM_BOND_UDEF_STEREO_COUNT>
0

> <PUBCHEM_ISOTOPIC_ATOM_COUNT>
0

> <PUBCHEM_COMPONENT_COUNT>
1

> <PUBCHEM_CACTVS_TAUTO_COUNT>
1

> <PUBCHEM_CONFORMER_ID>
000392FD00000005

> <PUBCHEM_MMFF94_ENERGY>
8.3499

> <PUBCHEM_FEATURE_SELFOVERLAP>
25.372

> <PUBCHEM_SHAPE_FINGERPRINT>
11089746 13 8646764474485857022
11287383 113 18343581859096006880
117890 112 9583522018878572086
12091667 2 17168147801859304788
12555020 224 16515405162130069770
13288520 33 18408603656325620445
13740256 8 18341894129562700705
13964095 4 17894622635707786973
1420 363 17988926661131625054
14251718 22 18334294262953912132
14251732 16 18340766044208691872
14251764 18 12247673885546185093
14251764 75 11317628817320281031
14350574 20 17458067083790095381
14729087 3 8646768881370443694
15501527 16 9511464437298265279
15501527 24 17385443241221508810
15716309 27 18272931622555917846
15880784 105 18130226076916560763
17834072 33 18259706709724439444
17834072 8 13262402159262574638
187816 3 16443066097009744080
200 152 17821446854601340725
20281389 69 11384117431853753802
20526848 3 9439414544348221775
20621476 30 18260833734438746002
20645477 70 13840531935905054400
20767249 213 9439401328485327886
21054139 6 18040712580679259122
21150785 3 13695876938805730346
21426921 1 18262234413494463773
22224240 67 15123787388103863701
22896161 15 18409448120495884052
23035841 295 18409731759313367499
23402539 116 17385442094228130716
23559900 14 16951135100494733868
26918003 58 17775568641284799201
270888 7 9222417116188100655
3014965 18 11242235339584146048
351380 3 18334009505910375110
42788 4 18187083936629245636
49783359 22 18343299275326689510
57483677 66 18334573517237553274
7062679 117 18260269659255912778
7495541 125 18202281446372549120

> <PUBCHEM_SHAPE_MULTIPOLES>
270.51
16.09
1.41
0.83
14.22
0.47
-0.14
8.43
-0.05
-1.7
0.18
-0.08
-0.09
-0.42

> <PUBCHEM_SHAPE_SELFOVERLAP>
495.172

> <PUBCHEM_SHAPE_VOLUME>
171.8

> <PUBCHEM_COORDINATE_TYPE>
2
5
10

$$$$
