23497922
  -OEChem-11232109113D

 27 26  0     1  0  0  0  0  0999 V2000
    0.3726   -0.2004    0.3392 O   0  0  0  0  0  0  0  0  0  0  0  0
    2.6462    1.3719    0.6114 O   0  0  0  0  0  0  0  0  0  0  0  0
   -0.8958   -1.1445   -1.3407 O   0  0  0  0  0  0  0  0  0  0  0  0
   -1.9705   -0.1499    0.6019 C   0  0  1  0  0  0  0  0  0  0  0  0
   -2.8772    0.8475   -0.1337 C   0  0  0  0  0  0  0  0  0  0  0  0
   -2.7493   -1.3998    1.0026 C   0  0  0  0  0  0  0  0  0  0  0  0
   -0.7951   -0.5750   -0.2616 C   0  0  0  0  0  0  0  0  0  0  0  0
    1.5665   -0.5165   -0.3837 C   0  0  0  0  0  0  0  0  0  0  0  0
    2.7708   -0.0360    0.4159 C   0  0  1  0  0  0  0  0  0  0  0  0
   -2.1420    2.1201   -0.5342 C   0  0  0  0  0  0  0  0  0  0  0  0
    4.0738   -0.3174   -0.3169 C   0  0  0  0  0  0  0  0  0  0  0  0
   -1.5904    0.3240    1.5159 H   0  0  0  0  0  0  0  0  0  0  0  0
   -3.2954    0.3858   -1.0367 H   0  0  0  0  0  0  0  0  0  0  0  0
   -3.7231    1.1152    0.5107 H   0  0  0  0  0  0  0  0  0  0  0  0
   -3.1697   -1.9090    0.1282 H   0  0  0  0  0  0  0  0  0  0  0  0
   -2.0989   -2.1146    1.5185 H   0  0  0  0  0  0  0  0  0  0  0  0
   -3.5740   -1.1452    1.6763 H   0  0  0  0  0  0  0  0  0  0  0  0
    2.7729   -0.5038    1.4065 H   0  0  0  0  0  0  0  0  0  0  0  0
    1.5280   -0.0030   -1.3522 H   0  0  0  0  0  0  0  0  0  0  0  0
    1.6225   -1.5994   -0.5434 H   0  0  0  0  0  0  0  0  0  0  0  0
   -1.6961    2.6062    0.3394 H   0  0  0  0  0  0  0  0  0  0  0  0
   -2.8394    2.8267   -0.9953 H   0  0  0  0  0  0  0  0  0  0  0  0
   -1.3479    1.9160   -1.2590 H   0  0  0  0  0  0  0  0  0  0  0  0
    4.1043    0.2049   -1.2795 H   0  0  0  0  0  0  0  0  0  0  0  0
    4.9269    0.0475    0.2651 H   0  0  0  0  0  0  0  0  0  0  0  0
    4.2068   -1.3890   -0.4933 H   0  0  0  0  0  0  0  0  0  0  0  0
    3.4116    1.6637    1.1353 H   0  0  0  0  0  0  0  0  0  0  0  0
  1  7  1  0  0  0  0
  1  8  1  0  0  0  0
  2  9  1  0  0  0  0
  2 27  1  0  0  0  0
  3  7  2  0  0  0  0
  4  5  1  0  0  0  0
  4  6  1  0  0  0  0
  4  7  1  0  0  0  0
  4 12  1  0  0  0  0
  5 10  1  0  0  0  0
  5 13  1  0  0  0  0
  5 14  1  0  0  0  0
  6 15  1  0  0  0  0
  6 16  1  0  0  0  0
  6 17  1  0  0  0  0
  8  9  1  0  0  0  0
  8 19  1  0  0  0  0
  8 20  1  0  0  0  0
  9 11  1  0  0  0  0
  9 18  1  0  0  0  0
 10 21  1  0  0  0  0
 10 22  1  0  0  0  0
 10 23  1  0  0  0  0
 11 24  1  0  0  0  0
 11 25  1  0  0  0  0
 11 26  1  0  0  0  0
M  END
> <PUBCHEM_COMPOUND_CID>
23497922

> <PUBCHEM_CONFORMER_RMSD>
0.8

> <PUBCHEM_CONFORMER_DIVERSEORDER>
1
96
17
114
20
63
117
78
70
88
43
97
31
45
121
15
118
112
4
82
23
104
51
40
122
113
10
44
116
11
108
47
98
76
101
3
100
99
119
41
25
53
75
58
84
52
39
111
71
13
37
32
110
73
103
89
7
55
36
102
105
69
34
12
29
48
83
22
72
94
85
86
28
19
24
68
62
49
61
67
6
74
8
56
38
64
80
109
9
106
79
54
91
59
33
14
16
46
65
27
18
92
66
5
42
115
81
26
30
90
95
50
93
77
2
57
120
87
60
35
21
107

> <PUBCHEM_MMFF94_PARTIAL_CHARGES>
8
1 -0.43
2 -0.68
27 0.4
3 -0.57
4 0.06
7 0.66
8 0.28
9 0.28

> <PUBCHEM_EFFECTIVE_ROTOR_COUNT>
5

> <PUBCHEM_PHARMACOPHORE_FEATURES>
5
1 10 hydrophobe
1 2 acceptor
1 2 donor
1 3 acceptor
1 6 hydrophobe

> <PUBCHEM_HEAVY_ATOM_COUNT>
11

> <PUBCHEM_ATOM_DEF_STEREO_COUNT>
0

> <PUBCHEM_ATOM_UDEF_STEREO_COUNT>
2

> <PUBCHEM_BOND_DEF_STEREO_COUNT>
0

> <PUBCHEM_BOND_UDEF_STEREO_COUNT>
0

> <PUBCHEM_ISOTOPIC_ATOM_COUNT>
0

> <PUBCHEM_COMPONENT_COUNT>
1

> <PUBCHEM_CACTVS_TAUTO_COUNT>
1

> <PUBCHEM_CONFORMER_ID>
01668CC200000001

> <PUBCHEM_MMFF94_ENERGY>
10.6177

> <PUBCHEM_FEATURE_SELFOVERLAP>
25.371

> <PUBCHEM_SHAPE_FINGERPRINT>
124424 183 18340481158748165458
12932764 1 18201435908945504594
13839132 238 18118970178904134333
14325111 11 18408324388999003658
14390081 3 18410570652394148433
17844478 74 18338525230272308697
18186145 218 17489872665584723050
20645464 45 18341620291169873583
20653085 51 18130783409031600981
20715346 28 18343026583658241390
21524375 3 17976527322292087029
23402539 116 18407754838266417423
3248919 1 17748821929986001090

> <PUBCHEM_SHAPE_MULTIPOLES>
208.77
6.24
1.6
0.96
5.11
0.68
-0.13
0.57
0.58
-1.47
0.01
-0.16
-0.19
0.69

> <PUBCHEM_SHAPE_SELFOVERLAP>
386.459

> <PUBCHEM_SHAPE_VOLUME>
132.6

> <PUBCHEM_COORDINATE_TYPE>
2
5
10

$$$$
