236687
  -OEChem-11232109043D

 30 31  0     1  0  0  0  0  0999 V2000
   -2.4213    0.8137    0.2114 O   0  0  0  0  0  0  0  0  0  0  0  0
   -1.1535   -1.1373    0.5328 O   0  0  0  0  0  0  0  0  0  0  0  0
   -1.1190    0.2966    0.5153 C   0  0  1  0  0  0  0  0  0  0  0  0
   -0.1312    0.7775   -0.5301 C   0  0  2  0  0  0  0  0  0  0  0  0
   -3.2958   -0.2964    0.4256 C   0  0  2  0  0  0  0  0  0  0  0  0
   -2.4435   -1.4747    0.0204 C   0  0  0  0  0  0  0  0  0  0  0  0
    1.2785    0.2677   -0.2627 C   0  0  0  0  0  0  0  0  0  0  0  0
   -0.1488    2.3080   -0.6542 C   0  0  0  0  0  0  0  0  0  0  0  0
   -4.5617   -0.1436   -0.3898 C   0  0  0  0  0  0  0  0  0  0  0  0
    2.1235    1.0255    0.5215 C   0  0  0  0  0  0  0  0  0  0  0  0
    1.6672   -0.9365   -0.8125 C   0  0  0  0  0  0  0  0  0  0  0  0
    3.4147    0.5586    0.7667 C   0  0  0  0  0  0  0  0  0  0  0  0
    2.9585   -1.4034   -0.5671 C   0  0  0  0  0  0  0  0  0  0  0  0
    3.8323   -0.6558    0.2226 C   0  0  0  0  0  0  0  0  0  0  0  0
   -0.8384    0.6356    1.5199 H   0  0  0  0  0  0  0  0  0  0  0  0
   -0.4393    0.3930   -1.5135 H   0  0  0  0  0  0  0  0  0  0  0  0
   -3.5300   -0.3339    1.4965 H   0  0  0  0  0  0  0  0  0  0  0  0
   -2.7867   -2.4229    0.4424 H   0  0  0  0  0  0  0  0  0  0  0  0
   -2.3576   -1.5740   -1.0674 H   0  0  0  0  0  0  0  0  0  0  0  0
   -0.0523    2.8102    0.3144 H   0  0  0  0  0  0  0  0  0  0  0  0
   -1.0995    2.6418   -1.0863 H   0  0  0  0  0  0  0  0  0  0  0  0
    0.6453    2.6700   -1.3172 H   0  0  0  0  0  0  0  0  0  0  0  0
   -4.3331   -0.0278   -1.4550 H   0  0  0  0  0  0  0  0  0  0  0  0
   -5.2216   -1.0067   -0.2628 H   0  0  0  0  0  0  0  0  0  0  0  0
   -5.1020    0.7596   -0.0871 H   0  0  0  0  0  0  0  0  0  0  0  0
    1.8275    1.9615    0.9813 H   0  0  0  0  0  0  0  0  0  0  0  0
    0.9945   -1.5252   -1.4288 H   0  0  0  0  0  0  0  0  0  0  0  0
    4.0937    1.1376    1.3861 H   0  0  0  0  0  0  0  0  0  0  0  0
    3.2837   -2.3492   -0.9906 H   0  0  0  0  0  0  0  0  0  0  0  0
    4.8372   -1.0202    0.4148 H   0  0  0  0  0  0  0  0  0  0  0  0
  1  3  1  0  0  0  0
  1  5  1  0  0  0  0
  2  3  1  0  0  0  0
  2  6  1  0  0  0  0
  3  4  1  0  0  0  0
  3 15  1  0  0  0  0
  4  7  1  0  0  0  0
  4  8  1  0  0  0  0
  4 16  1  0  0  0  0
  5  6  1  0  0  0  0
  5  9  1  0  0  0  0
  5 17  1  0  0  0  0
  6 18  1  0  0  0  0
  6 19  1  0  0  0  0
  7 10  2  0  0  0  0
  7 11  1  0  0  0  0
  8 20  1  0  0  0  0
  8 21  1  0  0  0  0
  8 22  1  0  0  0  0
  9 23  1  0  0  0  0
  9 24  1  0  0  0  0
  9 25  1  0  0  0  0
 10 12  1  0  0  0  0
 10 26  1  0  0  0  0
 11 13  2  0  0  0  0
 11 27  1  0  0  0  0
 12 14  2  0  0  0  0
 12 28  1  0  0  0  0
 13 14  1  0  0  0  0
 13 29  1  0  0  0  0
 14 30  1  0  0  0  0
M  END
> <PUBCHEM_COMPOUND_CID>
236687

> <PUBCHEM_CONFORMER_RMSD>
0.6

> <PUBCHEM_CONFORMER_DIVERSEORDER>
2
9
18
1
5
14
10
19
12
3
15
4
17
16
8
11
7
13
6

> <PUBCHEM_MMFF94_PARTIAL_CHARGES>
17
1 -0.56
10 -0.15
11 -0.15
12 -0.15
13 -0.15
14 -0.15
2 -0.56
26 0.15
27 0.15
28 0.15
29 0.15
3 0.56
30 0.15
4 0.14
5 0.28
6 0.28
7 -0.14

> <PUBCHEM_EFFECTIVE_ROTOR_COUNT>
3

> <PUBCHEM_PHARMACOPHORE_FEATURES>
5
1 1 acceptor
1 2 acceptor
1 8 hydrophobe
5 1 2 3 5 6 rings
6 7 10 11 12 13 14 rings

> <PUBCHEM_HEAVY_ATOM_COUNT>
14

> <PUBCHEM_ATOM_DEF_STEREO_COUNT>
0

> <PUBCHEM_ATOM_UDEF_STEREO_COUNT>
3

> <PUBCHEM_BOND_DEF_STEREO_COUNT>
0

> <PUBCHEM_BOND_UDEF_STEREO_COUNT>
0

> <PUBCHEM_ISOTOPIC_ATOM_COUNT>
0

> <PUBCHEM_COMPONENT_COUNT>
1

> <PUBCHEM_CACTVS_TAUTO_COUNT>
1

> <PUBCHEM_CONFORMER_ID>
00039C8F00000002

> <PUBCHEM_MMFF94_ENERGY>
38.6773

> <PUBCHEM_FEATURE_SELFOVERLAP>
25.412

> <PUBCHEM_SHAPE_FINGERPRINT>
10130415 120 17968098641914593945
10219947 1 18412828018490665548
10618630 7 18334014982072499998
10751810 167 16515688831755849429
10922049 32 9367347054552409565
11031198 65 11025801985534549690
11132069 177 18341606049195242898
12032990 46 18334301967645290779
12251169 10 18202561795867095090
13296908 3 18260553354625116651
13571099 22 18411421730492203615
13675066 3 18335988640299903745
13690532 89 18408322207451016307
14115302 16 16588031224769376138
14251717 144 18201998832680904807
14252887 29 18410863165399912834
14943859 89 8862942770883883868
15219456 202 18342451509191608396
15375358 24 18408600391849749618
15501101 241 18343585157219550488
15848700 24 18408035217214077949
16945 1 18272381900584868401
17834072 14 18410849975760984053
18175812 5 18272369793340917518
18186145 218 8646775486386189730
200 152 17632852027857423007
201361 129 9294474722524517173
20201158 50 18341897380900611506
20279233 1 18411984667170618755
20281407 28 18408892810735407266
20361792 2 17240484731805812532
20528008 55 18273210910909017043
20645477 70 18273215279033520039
20871998 22 18410860923648400284
21119208 17 14417852531569756074
21501502 16 18340779122062465248
21501925 9 18411980277745528296
22485316 2 18333447646894321874
22854114 59 17775562061415948968
22892500 29 17561074839075296072
23402539 116 18342447128636086173
23463225 33 18409450305937898918
23532345 42 18408603690606094444
23557571 272 18261674784019890388
23559900 14 18343016714013279920
2748010 2 18410865381518784286
276578 36 12967133796048777204
296302 2 18261674877976063284
31174 14 18202555181839278400
3286 77 17775000172345849528
474 4 15050296087207694794
57005193 9 18341323453105883111
57812782 119 18343582940821058555
581208 293 18272367598670761894
69090 78 18201433688468693599
7364860 26 18193846065693704188
74978 22 17096095808442620739
81228 2 18115316552909490292
9709674 26 18271812336582713247

> <PUBCHEM_SHAPE_MULTIPOLES>
276.37
7.16
1.68
0.86
2.89
0.44
0.03
-1.9
-0.55
-0.22
0.3
-0.21
0.04
0.46

> <PUBCHEM_SHAPE_SELFOVERLAP>
577.324

> <PUBCHEM_SHAPE_VOLUME>
157.8

> <PUBCHEM_COORDINATE_TYPE>
2
5
10

$$$$
