238498
  -OEChem-11232108453D

 25 24  0     0  0  0  0  0  0999 V2000
   -2.4313    0.5555    0.0184 O   0  0  0  0  0  0  0  0  0  0  0  0
    1.2945   -1.4041    0.0103 O   0  0  0  0  0  0  0  0  0  0  0  0
   -1.3785   -1.4950   -0.0092 O   0  0  0  0  0  0  0  0  0  0  0  0
    2.4726    0.6992   -0.0162 C   0  0  0  0  0  0  0  0  0  0  0  0
    3.7635   -0.1145   -0.0186 C   0  0  0  0  0  0  0  0  0  0  0  0
    1.2281   -0.1763   -0.0008 C   0  0  0  0  0  0  0  0  0  0  0  0
   -0.0929    0.5702    0.0355 C   0  0  0  0  0  0  0  0  0  0  0  0
    4.9889    0.7844   -0.0007 C   0  0  0  0  0  0  0  0  0  0  0  0
   -1.3439   -0.2731    0.0199 C   0  0  0  0  0  0  0  0  0  0  0  0
   -3.7044   -0.0973   -0.0212 C   0  0  0  0  0  0  0  0  0  0  0  0
   -4.7965    0.9510   -0.0177 C   0  0  0  0  0  0  0  0  0  0  0  0
    2.4286    1.3324   -0.9092 H   0  0  0  0  0  0  0  0  0  0  0  0
    2.4406    1.3428    0.8701 H   0  0  0  0  0  0  0  0  0  0  0  0
    3.7980   -0.7579   -0.9058 H   0  0  0  0  0  0  0  0  0  0  0  0
    3.7903   -0.7773    0.8547 H   0  0  0  0  0  0  0  0  0  0  0  0
   -0.1049    1.1715    0.9511 H   0  0  0  0  0  0  0  0  0  0  0  0
   -0.1205    1.2257   -0.8418 H   0  0  0  0  0  0  0  0  0  0  0  0
    5.9019    0.1808   -0.0041 H   0  0  0  0  0  0  0  0  0  0  0  0
    5.0010    1.4135    0.8950 H   0  0  0  0  0  0  0  0  0  0  0  0
    5.0096    1.4366   -0.8795 H   0  0  0  0  0  0  0  0  0  0  0  0
   -3.7758   -0.7032   -0.9313 H   0  0  0  0  0  0  0  0  0  0  0  0
   -3.8102   -0.7449    0.8564 H   0  0  0  0  0  0  0  0  0  0  0  0
   -5.7856    0.4856   -0.0476 H   0  0  0  0  0  0  0  0  0  0  0  0
   -4.7270    1.5769    0.8782 H   0  0  0  0  0  0  0  0  0  0  0  0
   -4.6932    1.6180   -0.8800 H   0  0  0  0  0  0  0  0  0  0  0  0
  1  9  1  0  0  0  0
  1 10  1  0  0  0  0
  2  6  2  0  0  0  0
  3  9  2  0  0  0  0
  4  5  1  0  0  0  0
  4  6  1  0  0  0  0
  4 12  1  0  0  0  0
  4 13  1  0  0  0  0
  5  8  1  0  0  0  0
  5 14  1  0  0  0  0
  5 15  1  0  0  0  0
  6  7  1  0  0  0  0
  7  9  1  0  0  0  0
  7 16  1  0  0  0  0
  7 17  1  0  0  0  0
  8 18  1  0  0  0  0
  8 19  1  0  0  0  0
  8 20  1  0  0  0  0
 10 11  1  0  0  0  0
 10 21  1  0  0  0  0
 10 22  1  0  0  0  0
 11 23  1  0  0  0  0
 11 24  1  0  0  0  0
 11 25  1  0  0  0  0
M  END
> <PUBCHEM_COMPOUND_CID>
238498

> <PUBCHEM_CONFORMER_RMSD>
0.8

> <PUBCHEM_CONFORMER_DIVERSEORDER>
1
108
73
36
18
68
49
114
74
33
60
83
25
16
24
70
94
76
116
42
71
119
2
65
115
37
106
55
104
75
17
81
15
67
26
113
39
85
47
97
4
95
122
96
44
63
50
99
29
12
101
58
111
57
72
82
109
40
93
89
105
56
91
88
87
22
52
54
117
30
90
118
103
64
110
9
27
120
78
20
10
112
21
51
53
3
66
61
11
121
45
35
84
62
7
14
23
8
98
86
31
19
102
41
6
48
13
46
69
92
59
28
79
77
32
43
38
5
100
107
80
34

> <PUBCHEM_MMFF94_PARTIAL_CHARGES>
8
1 -0.43
10 0.28
2 -0.57
3 -0.57
4 0.06
6 0.45
7 0.12
9 0.66

> <PUBCHEM_EFFECTIVE_ROTOR_COUNT>
6

> <PUBCHEM_PHARMACOPHORE_FEATURES>
4
1 2 acceptor
1 3 acceptor
1 7 anion
1 8 hydrophobe

> <PUBCHEM_HEAVY_ATOM_COUNT>
11

> <PUBCHEM_ATOM_DEF_STEREO_COUNT>
0

> <PUBCHEM_ATOM_UDEF_STEREO_COUNT>
0

> <PUBCHEM_BOND_DEF_STEREO_COUNT>
0

> <PUBCHEM_BOND_UDEF_STEREO_COUNT>
0

> <PUBCHEM_ISOTOPIC_ATOM_COUNT>
0

> <PUBCHEM_COMPONENT_COUNT>
1

> <PUBCHEM_CACTVS_TAUTO_COUNT>
5

> <PUBCHEM_CONFORMER_ID>
0003A3A200000001

> <PUBCHEM_MMFF94_ENERGY>
3.8495

> <PUBCHEM_FEATURE_SELFOVERLAP>
20.305

> <PUBCHEM_SHAPE_FINGERPRINT>
11062470 55 18411136935115506400
11401426 45 18272085006701945324
12932764 1 15141229001343064984
13380535 76 18411139134139203711
14123238 8 17967533484353205293
14252887 29 12179838369209961824
14897335 6 18411981355740361983
14993402 34 15769773563261142013
15501527 16 18410295804895087801
17834072 33 17703503389151475053
17834076 25 18341894090850050732
18342897 14 18334575741466272640
187816 3 16702303451438702435
20279233 1 17775294880338410254
20645477 56 18409166636306915468
20645477 70 18201441307361115782
20719005 15 18410575097553262049
21119208 17 16343703239860748180
21293036 1 15410895162714849448
22485316 2 16773794801124998718
23402539 116 18273207603974207413
23402655 69 18201997690683736757
366044 4 18410573985589586931
42788 4 18410856563950763020
449060 50 18335141990001777317

> <PUBCHEM_SHAPE_MULTIPOLES>
208.77
9.65
1.15
0.59
0.17
0.28
0
-3.42
0.09
-0.15
0
0.02
-0.02
0

> <PUBCHEM_SHAPE_SELFOVERLAP>
387.149

> <PUBCHEM_SHAPE_VOLUME>
131.1

> <PUBCHEM_COORDINATE_TYPE>
2
5
10

$$$$
