240121
  -OEChem-11232109153D

 47 49  0     1  0  0  0  0  0999 V2000
   -2.4635   -0.4040    0.6949 O   0  0  0  0  0  0  0  0  0  0  0  0
   -3.1375    0.0182   -1.4740 O   0  0  0  0  0  0  0  0  0  0  0  0
    1.6343   -0.5335    0.1991 C   0  0  1  0  0  0  0  0  0  0  0  0
    1.3302    0.8909    0.7631 C   0  0  2  0  0  0  0  0  0  0  0  0
    0.0356    1.3644    0.0182 C   0  0  0  0  0  0  0  0  0  0  0  0
   -0.4806    0.0467   -0.6768 C   0  0  1  0  0  0  0  0  0  0  0  0
    0.8491   -0.5764   -1.1197 C   0  0  0  0  0  0  0  0  0  0  0  0
    3.1637   -0.5900    0.0569 C   0  0  2  0  0  0  0  0  0  0  0  0
    1.0710   -1.6390    1.1191 C   0  0  0  0  0  0  0  0  0  0  0  0
   -1.2493   -0.9853    0.2104 C   0  0  1  0  0  0  0  0  0  0  0  0
    2.6338    1.6893    0.5889 C   0  0  0  0  0  0  0  0  0  0  0  0
    3.5341    0.8476   -0.3096 C   0  0  0  0  0  0  0  0  0  0  0  0
   -0.4207   -1.4450    1.4268 C   0  0  0  0  0  0  0  0  0  0  0  0
   -0.9495    2.0118    1.0047 C   0  0  0  0  0  0  0  0  0  0  0  0
    0.2978    2.4332   -1.0733 C   0  0  0  0  0  0  0  0  0  0  0  0
    3.6949   -1.6073   -0.9420 C   0  0  0  0  0  0  0  0  0  0  0  0
   -1.6903   -2.2129   -0.6085 C   0  0  0  0  0  0  0  0  0  0  0  0
   -3.3161    0.0571   -0.2641 C   0  0  0  0  0  0  0  0  0  0  0  0
   -4.5370    0.6342    0.3859 C   0  0  0  0  0  0  0  0  0  0  0  0
    1.1348    0.8372    1.8421 H   0  0  0  0  0  0  0  0  0  0  0  0
   -1.0220    0.3072   -1.5866 H   0  0  0  0  0  0  0  0  0  0  0  0
    0.7471   -1.5897   -1.5198 H   0  0  0  0  0  0  0  0  0  0  0  0
    1.3228    0.0140   -1.9100 H   0  0  0  0  0  0  0  0  0  0  0  0
    3.6064   -0.8144    1.0375 H   0  0  0  0  0  0  0  0  0  0  0  0
    1.6223   -1.6667    2.0671 H   0  0  0  0  0  0  0  0  0  0  0  0
    1.2181   -2.6191    0.6484 H   0  0  0  0  0  0  0  0  0  0  0  0
    3.1164    1.7819    1.5710 H   0  0  0  0  0  0  0  0  0  0  0  0
    2.5098    2.7077    0.2172 H   0  0  0  0  0  0  0  0  0  0  0  0
    3.3276    1.0605   -1.3644 H   0  0  0  0  0  0  0  0  0  0  0  0
    4.5934    1.0568   -0.1289 H   0  0  0  0  0  0  0  0  0  0  0  0
   -0.8338   -2.3723    1.8450 H   0  0  0  0  0  0  0  0  0  0  0  0
   -0.5241   -0.7187    2.2416 H   0  0  0  0  0  0  0  0  0  0  0  0
   -1.8790    2.3040    0.5069 H   0  0  0  0  0  0  0  0  0  0  0  0
   -0.5148    2.9238    1.4325 H   0  0  0  0  0  0  0  0  0  0  0  0
   -1.1938    1.3691    1.8530 H   0  0  0  0  0  0  0  0  0  0  0  0
    0.5930    3.3922   -0.6328 H   0  0  0  0  0  0  0  0  0  0  0  0
   -0.6127    2.6210   -1.6550 H   0  0  0  0  0  0  0  0  0  0  0  0
    1.0798    2.1423   -1.7795 H   0  0  0  0  0  0  0  0  0  0  0  0
    4.7901   -1.5952   -0.9504 H   0  0  0  0  0  0  0  0  0  0  0  0
    3.3729   -2.6192   -0.6772 H   0  0  0  0  0  0  0  0  0  0  0  0
    3.3573   -1.3978   -1.9619 H   0  0  0  0  0  0  0  0  0  0  0  0
   -0.8785   -2.9432   -0.7000 H   0  0  0  0  0  0  0  0  0  0  0  0
   -2.5338   -2.7274   -0.1324 H   0  0  0  0  0  0  0  0  0  0  0  0
   -1.9904   -1.9731   -1.6326 H   0  0  0  0  0  0  0  0  0  0  0  0
   -4.2519    1.4338    1.0739 H   0  0  0  0  0  0  0  0  0  0  0  0
   -5.0802   -0.1526    0.9151 H   0  0  0  0  0  0  0  0  0  0  0  0
   -5.1910    1.0564   -0.3824 H   0  0  0  0  0  0  0  0  0  0  0  0
  1 10  1  0  0  0  0
  1 18  1  0  0  0  0
  2 18  2  0  0  0  0
  3  4  1  0  0  0  0
  3  7  1  0  0  0  0
  3  8  1  0  0  0  0
  3  9  1  0  0  0  0
  4  5  1  0  0  0  0
  4 11  1  0  0  0  0
  4 20  1  0  0  0  0
  5  6  1  0  0  0  0
  5 14  1  0  0  0  0
  5 15  1  0  0  0  0
  6  7  1  0  0  0  0
  6 10  1  0  0  0  0
  6 21  1  0  0  0  0
  7 22  1  0  0  0  0
  7 23  1  0  0  0  0
  8 12  1  0  0  0  0
  8 16  1  0  0  0  0
  8 24  1  0  0  0  0
  9 13  1  0  0  0  0
  9 25  1  0  0  0  0
  9 26  1  0  0  0  0
 10 13  1  0  0  0  0
 10 17  1  0  0  0  0
 11 12  1  0  0  0  0
 11 27  1  0  0  0  0
 11 28  1  0  0  0  0
 12 29  1  0  0  0  0
 12 30  1  0  0  0  0
 13 31  1  0  0  0  0
 13 32  1  0  0  0  0
 14 33  1  0  0  0  0
 14 34  1  0  0  0  0
 14 35  1  0  0  0  0
 15 36  1  0  0  0  0
 15 37  1  0  0  0  0
 15 38  1  0  0  0  0
 16 39  1  0  0  0  0
 16 40  1  0  0  0  0
 16 41  1  0  0  0  0
 17 42  1  0  0  0  0
 17 43  1  0  0  0  0
 17 44  1  0  0  0  0
 18 19  1  0  0  0  0
 19 45  1  0  0  0  0
 19 46  1  0  0  0  0
 19 47  1  0  0  0  0
M  END
> <PUBCHEM_COMPOUND_CID>
240121

> <PUBCHEM_CONFORMER_RMSD>
0.6

> <PUBCHEM_CONFORMER_DIVERSEORDER>
2
10
21
11
25
24
19
8
9
18
29
13
30
16
31
5
26
14
32
17
6
20
15
27
1
12
7
23
4
22
28
3

> <PUBCHEM_MMFF94_PARTIAL_CHARGES>
5
1 -0.43
10 0.28
18 0.66
19 0.06
2 -0.57

> <PUBCHEM_EFFECTIVE_ROTOR_COUNT>
3.6

> <PUBCHEM_PHARMACOPHORE_FEATURES>
4
1 2 acceptor
3 5 14 15 hydrophobe
5 3 4 8 11 12 rings
8 3 4 5 6 7 9 10 13 rings

> <PUBCHEM_HEAVY_ATOM_COUNT>
19

> <PUBCHEM_ATOM_DEF_STEREO_COUNT>
0

> <PUBCHEM_ATOM_UDEF_STEREO_COUNT>
5

> <PUBCHEM_BOND_DEF_STEREO_COUNT>
0

> <PUBCHEM_BOND_UDEF_STEREO_COUNT>
0

> <PUBCHEM_ISOTOPIC_ATOM_COUNT>
0

> <PUBCHEM_COMPONENT_COUNT>
1

> <PUBCHEM_CACTVS_TAUTO_COUNT>
1

> <PUBCHEM_CONFORMER_ID>
0003A9F900000002

> <PUBCHEM_MMFF94_ENERGY>
87.937

> <PUBCHEM_FEATURE_SELFOVERLAP>
20.357

> <PUBCHEM_SHAPE_FINGERPRINT>
104564 63 18194119608187338585
10863032 1 18130504257368394890
10948715 1 18339359785267477976
10967382 1 18410855460333877200
10980938 120 18261100872877185451
11132069 177 18339352058980015144
116883 192 17987526909519655628
12011746 2 18342464707525843540
12423570 1 12192972164331225026
12491281 212 18060148664501865401
12592029 89 16298392318551497514
13132413 78 18335421321837591925
13134695 92 18131349717480909176
13140716 1 18337665408058903330
13221675 6 18412543189028471787
13296908 3 18336830887038414971
13571099 22 18411139155624089533
14115302 16 18041574588788418670
14713325 29 16452654109372376324
15775835 57 18333447651584882523
15848702 151 17703515367736291958
16752209 62 18195514909695958453
16945 1 18273217508247659768
18186145 218 18259981574134519199
18511873 20 18409449215074253953
200 152 17775567537757811398
20511035 2 18051979417640623836
21501502 16 17901106635469095285
22802520 49 18338529585759686226
23184049 59 18412829075200267963
2334 1 18193272120818872162
23402539 116 18272363131593635343
23419403 2 15144390075535010004
23493267 7 16298389015521004664
23559900 14 18408044035747105510
25 1 18259700107747801643
2748010 2 18263367056594419234
296302 2 18187082905420402156
3286 77 16558456509481758370
34934 24 18341888640874097296
353137 74 18334852779826058720
528886 8 18131346449005307658
53655031 270 18337389344497944105
53812653 166 18260264174418976795
57812782 119 13183019626912539499
63268167 104 18340486771816799425
633830 44 18408038498748362085
69090 78 18343016714113688479
7832392 63 18270396208576370323
81228 2 18335708191609776400

> <PUBCHEM_SHAPE_MULTIPOLES>
379.27
5.93
2.28
1.24
2.22
0.39
0.02
-0.14
0.75
-0.47
-0.01
0.11
-0.11
0.11

> <PUBCHEM_SHAPE_SELFOVERLAP>
806.286

> <PUBCHEM_SHAPE_VOLUME>
215.4

> <PUBCHEM_COORDINATE_TYPE>
2
5
10

$$$$
