24191
  -OEChem-11232109113D

 36 35  0     0  0  0  0  0  0999 V2000
   -3.5208   -0.5515    0.9510 O   0  0  0  0  0  0  0  0  0  0  0  0
   -3.1985    1.5341   -0.1051 O   0  0  0  0  0  0  0  0  0  0  0  0
    0.9616   -0.9664    0.2721 C   0  0  0  0  0  0  0  0  0  0  0  0
    1.9044   -0.3696   -0.7809 C   0  0  0  0  0  0  0  0  0  0  0  0
   -0.4997   -0.9196   -0.1222 C   0  0  0  0  0  0  0  0  0  0  0  0
   -1.3626    0.0529    0.2330 C   0  0  0  0  0  0  0  0  0  0  0  0
    3.3554   -0.5510   -0.4296 C   0  0  0  0  0  0  0  0  0  0  0  0
   -0.9783   -2.0877   -0.9457 C   0  0  0  0  0  0  0  0  0  0  0  0
   -2.8281    0.1509   -0.0923 C   0  0  0  0  0  0  0  0  0  0  0  0
    4.1757    0.3196    0.1883 C   0  0  0  0  0  0  0  0  0  0  0  0
    5.6147   -0.0418    0.4451 C   0  0  0  0  0  0  0  0  0  0  0  0
    3.7811    1.6801    0.6882 C   0  0  0  0  0  0  0  0  0  0  0  0
   -4.9306   -0.5380    0.7673 C   0  0  0  0  0  0  0  0  0  0  0  0
   -2.4742    2.2880   -1.0693 C   0  0  0  0  0  0  0  0  0  0  0  0
    1.0955   -0.4197    1.2155 H   0  0  0  0  0  0  0  0  0  0  0  0
    1.2454   -2.0032    0.4945 H   0  0  0  0  0  0  0  0  0  0  0  0
    1.6678    0.6888   -0.9387 H   0  0  0  0  0  0  0  0  0  0  0  0
    1.7339   -0.8538   -1.7511 H   0  0  0  0  0  0  0  0  0  0  0  0
   -0.9701    0.8378    0.8798 H   0  0  0  0  0  0  0  0  0  0  0  0
    3.7634   -1.5176   -0.7235 H   0  0  0  0  0  0  0  0  0  0  0  0
   -3.0776   -0.2885   -1.0643 H   0  0  0  0  0  0  0  0  0  0  0  0
   -2.0631   -2.1527   -1.0529 H   0  0  0  0  0  0  0  0  0  0  0  0
   -0.5425   -2.0425   -1.9490 H   0  0  0  0  0  0  0  0  0  0  0  0
   -0.6622   -3.0277   -0.4795 H   0  0  0  0  0  0  0  0  0  0  0  0
    5.8700   -1.0371    0.0663 H   0  0  0  0  0  0  0  0  0  0  0  0
    6.2786    0.6790   -0.0435 H   0  0  0  0  0  0  0  0  0  0  0  0
    5.8222   -0.0327    1.5202 H   0  0  0  0  0  0  0  0  0  0  0  0
    4.0133    1.7721    1.7546 H   0  0  0  0  0  0  0  0  0  0  0  0
    2.7139    1.8859    0.5739 H   0  0  0  0  0  0  0  0  0  0  0  0
    4.3320    2.4557    0.1464 H   0  0  0  0  0  0  0  0  0  0  0  0
   -5.1966   -0.9729   -0.2008 H   0  0  0  0  0  0  0  0  0  0  0  0
   -5.3233    0.4799    0.8459 H   0  0  0  0  0  0  0  0  0  0  0  0
   -5.3839   -1.1435    1.5569 H   0  0  0  0  0  0  0  0  0  0  0  0
   -1.4447    2.4705   -0.7486 H   0  0  0  0  0  0  0  0  0  0  0  0
   -2.9642    3.2610   -1.1688 H   0  0  0  0  0  0  0  0  0  0  0  0
   -2.4906    1.7973   -2.0478 H   0  0  0  0  0  0  0  0  0  0  0  0
  1  9  1  0  0  0  0
  1 13  1  0  0  0  0
  2  9  1  0  0  0  0
  2 14  1  0  0  0  0
  3  4  1  0  0  0  0
  3  5  1  0  0  0  0
  3 15  1  0  0  0  0
  3 16  1  0  0  0  0
  4  7  1  0  0  0  0
  4 17  1  0  0  0  0
  4 18  1  0  0  0  0
  5  6  2  3  0  0  0
  5  8  1  0  0  0  0
  6  9  1  0  0  0  0
  6 19  1  0  0  0  0
  7 10  2  0  0  0  0
  7 20  1  0  0  0  0
  8 22  1  0  0  0  0
  8 23  1  0  0  0  0
  8 24  1  0  0  0  0
  9 21  1  0  0  0  0
 10 11  1  0  0  0  0
 10 12  1  0  0  0  0
 11 25  1  0  0  0  0
 11 26  1  0  0  0  0
 11 27  1  0  0  0  0
 12 28  1  0  0  0  0
 12 29  1  0  0  0  0
 12 30  1  0  0  0  0
 13 31  1  0  0  0  0
 13 32  1  0  0  0  0
 13 33  1  0  0  0  0
 14 34  1  0  0  0  0
 14 35  1  0  0  0  0
 14 36  1  0  0  0  0
M  END
> <PUBCHEM_COMPOUND_CID>
24191

> <PUBCHEM_CONFORMER_RMSD>
0.6

> <PUBCHEM_CONFORMER_DIVERSEORDER>
10
328
115
223
336
306
120
318
242
141
325
183
211
1
236
332
195
307
320
155
193
68
105
338
253
93
123
358
226
213
310
234
44
205
77
191
200
271
217
265
255
204
54
118
63
362
309
94
189
19
347
222
228
132
158
239
218
305
261
114
160
178
185
301
81
157
176
231
121
315
302
339
257
138
90
321
11
57
206
161
110
126
74
238
169
260
38
79
124
326
308
249
166
219
356
119
78
288
296
340
21
50
4
243
87
156
292
52
263
184
162
180
99
285
117
274
46
41
331
366
250
303
188
251
187
16
335
143
136
167
55
7
311
36
357
139
281
127
333
201
14
23
353
254
196
159
67
214
59
15
51
349
312
137
264
8
297
277
34
103
316
351
108
129
282
84
65
45
289
229
359
197
352
354
202
102
194
198
149
199
92
298
80
163
367
107
323
237
154
278
224
290
348
83
66
207
283
337
355
29
330
209
43
28
48
134
208
280
286
82
269
179
168
2
364
61
22
291
220
227
252
192
287
122
5
49
144
334
240
152
181
40
235
104
279
62
317
9
17
295
47
361
75
96
344
262
25
31
164
106
135
128
210
42
174
267
111
76
175
268
6
26
142
56
18
270
98
140
33
39
329
171
170
247
133
88
71
215
91
53
113
241
13
172
350
60
256
146
284
85
300
70
130
363
212
299
245
147
233
27
244
342
69
368
97
86
293
275
230
343
232
313
131
73
221
125
304
273
186
95
151
58
276
100
365
360
314
145
24
259
148
112
266
20
177
165
173
324
272
248
294
12
216
89
258
190
203
109
35
30
150
346
345
341
319
37
246
3
116
322
72
225
32
153
64
101
182
327

> <PUBCHEM_MMFF94_PARTIAL_CHARGES>
16
1 -0.56
10 -0.28
11 0.14
12 0.14
13 0.28
14 0.28
19 0.15
2 -0.56
20 0.15
3 0.14
4 0.14
5 -0.28
6 -0.29
7 -0.29
8 0.14
9 0.7

> <PUBCHEM_EFFECTIVE_ROTOR_COUNT>
6

> <PUBCHEM_PHARMACOPHORE_FEATURES>
5
1 1 acceptor
1 2 acceptor
1 8 hydrophobe
3 10 11 12 hydrophobe
4 3 4 5 7 hydrophobe

> <PUBCHEM_HEAVY_ATOM_COUNT>
14

> <PUBCHEM_ATOM_DEF_STEREO_COUNT>
0

> <PUBCHEM_ATOM_UDEF_STEREO_COUNT>
0

> <PUBCHEM_BOND_DEF_STEREO_COUNT>
0

> <PUBCHEM_BOND_UDEF_STEREO_COUNT>
1

> <PUBCHEM_ISOTOPIC_ATOM_COUNT>
0

> <PUBCHEM_COMPONENT_COUNT>
1

> <PUBCHEM_CACTVS_TAUTO_COUNT>
1

> <PUBCHEM_CONFORMER_ID>
00005E7F0000000A

> <PUBCHEM_MMFF94_ENERGY>
25.1131

> <PUBCHEM_FEATURE_SELFOVERLAP>
25.413

> <PUBCHEM_SHAPE_FINGERPRINT>
11543360 7 12751226035029077866
124424 183 10665233661460359875
12507560 40 18262801761462377062
12596602 18 16732984262613327080
13081056 2 18412829092422393616
13533116 47 17676477316089664419
13675066 3 18333732408022167326
14123255 352 18408878525927719900
14123255 52 18411976940830518814
15242433 33 11815902240660782348
15501527 16 18201719583050803560
17802600 8 18408040727557099581
18186145 218 17917999343303364502
19433438 28 18334856121627106736
20281407 28 11530486635877523254
20432913 95 14056716838279098080
20645477 56 18272370897290197286
20645477 70 17131845222746299902
20681677 155 11959730460454512679
21524375 3 18411703179419983894
21652331 79 18409166649081222888
22182937 141 18196658384852485553
22224240 67 18130797776383482963
23402539 116 18186518830671008319
23402655 69 14476967748578202882
23403322 49 8502652606034696561
23557571 272 18116732741582231087
351380 180 18333731320883725568
3524813 1 18411973659375615736
3545911 37 18060142050874857870
4047638 21 17989495125733623830
449060 50 18202004335003327462
4921388 177 14476669858067896557
5104073 3 18190186685296400499
548570 60 18341045238146513092
633830 44 17202215022815615391
6430166 295 18411694371011317200
69090 78 18201719578244536206

> <PUBCHEM_SHAPE_MULTIPOLES>
276.37
10.77
1.87
0.97
5.84
0.66
-0.07
2.14
2.95
-1.02
-0.56
-0.38
0.04
0.97

> <PUBCHEM_SHAPE_SELFOVERLAP>
513.532

> <PUBCHEM_SHAPE_VOLUME>
174.8

> <PUBCHEM_COORDINATE_TYPE>
2
5
10

$$$$
