243670
  -OEChem-11232109163D

 32 31  0     1  0  0  0  0  0999 V2000
    0.1597    0.0593    0.0417 O   0  0  0  0  0  0  0  0  0  0  0  0
    1.7795    0.9457   -1.3414 O   0  0  0  0  0  0  0  0  0  0  0  0
   -2.0559    0.8695    0.4889 C   0  0  0  0  0  0  0  0  0  0  0  0
   -0.6655    1.2211   -0.0505 C   0  0  1  0  0  0  0  0  0  0  0  0
   -2.7146   -0.3021   -0.2402 C   0  0  0  0  0  0  0  0  0  0  0  0
   -4.0817   -0.6305    0.3615 C   0  0  0  0  0  0  0  0  0  0  0  0
    0.0159    2.3554    0.7030 C   0  0  0  0  0  0  0  0  0  0  0  0
   -4.7287   -1.8148   -0.3388 C   0  0  0  0  0  0  0  0  0  0  0  0
    2.3521   -0.7211    0.3346 C   0  0  0  0  0  0  0  0  0  0  0  0
    1.4334    0.1991   -0.4363 C   0  0  0  0  0  0  0  0  0  0  0  0
    3.7930   -0.6384   -0.1630 C   0  0  0  0  0  0  0  0  0  0  0  0
    4.7129   -1.5432    0.6405 C   0  0  0  0  0  0  0  0  0  0  0  0
   -2.7035    1.7526    0.4278 H   0  0  0  0  0  0  0  0  0  0  0  0
   -1.9669    0.6073    1.5512 H   0  0  0  0  0  0  0  0  0  0  0  0
   -0.7708    1.4970   -1.1078 H   0  0  0  0  0  0  0  0  0  0  0  0
   -2.8273   -0.0558   -1.3029 H   0  0  0  0  0  0  0  0  0  0  0  0
   -2.0739   -1.1898   -0.1807 H   0  0  0  0  0  0  0  0  0  0  0  0
   -3.9745   -0.8605    1.4280 H   0  0  0  0  0  0  0  0  0  0  0  0
   -4.7423    0.2406    0.2820 H   0  0  0  0  0  0  0  0  0  0  0  0
   -0.6461    3.2251    0.7698 H   0  0  0  0  0  0  0  0  0  0  0  0
    0.9386    2.6899    0.2205 H   0  0  0  0  0  0  0  0  0  0  0  0
    0.2805    2.0455    1.7203 H   0  0  0  0  0  0  0  0  0  0  0  0
   -4.8783   -1.6071   -1.4031 H   0  0  0  0  0  0  0  0  0  0  0  0
   -4.1081   -2.7120   -0.2473 H   0  0  0  0  0  0  0  0  0  0  0  0
   -5.7053   -2.0308    0.1057 H   0  0  0  0  0  0  0  0  0  0  0  0
    2.3082   -0.4366    1.3920 H   0  0  0  0  0  0  0  0  0  0  0  0
    1.9817   -1.7465    0.2248 H   0  0  0  0  0  0  0  0  0  0  0  0
    3.8396   -0.9204   -1.2216 H   0  0  0  0  0  0  0  0  0  0  0  0
    4.1541    0.3949   -0.0947 H   0  0  0  0  0  0  0  0  0  0  0  0
    5.7389   -1.4690    0.2666 H   0  0  0  0  0  0  0  0  0  0  0  0
    4.7155   -1.2605    1.6981 H   0  0  0  0  0  0  0  0  0  0  0  0
    4.3984   -2.5890    0.5646 H   0  0  0  0  0  0  0  0  0  0  0  0
  1  4  1  0  0  0  0
  1 10  1  0  0  0  0
  2 10  2  0  0  0  0
  3  4  1  0  0  0  0
  3  5  1  0  0  0  0
  3 13  1  0  0  0  0
  3 14  1  0  0  0  0
  4  7  1  0  0  0  0
  4 15  1  0  0  0  0
  5  6  1  0  0  0  0
  5 16  1  0  0  0  0
  5 17  1  0  0  0  0
  6  8  1  0  0  0  0
  6 18  1  0  0  0  0
  6 19  1  0  0  0  0
  7 20  1  0  0  0  0
  7 21  1  0  0  0  0
  7 22  1  0  0  0  0
  8 23  1  0  0  0  0
  8 24  1  0  0  0  0
  8 25  1  0  0  0  0
  9 10  1  0  0  0  0
  9 11  1  0  0  0  0
  9 26  1  0  0  0  0
  9 27  1  0  0  0  0
 11 12  1  0  0  0  0
 11 28  1  0  0  0  0
 11 29  1  0  0  0  0
 12 30  1  0  0  0  0
 12 31  1  0  0  0  0
 12 32  1  0  0  0  0
M  END
> <PUBCHEM_COMPOUND_CID>
243670

> <PUBCHEM_CONFORMER_RMSD>
0.8

> <PUBCHEM_CONFORMER_DIVERSEORDER>
1
173
130
147
10
88
34
131
17
45
175
2
129
74
132
148
150
106
59
157
8
142
21
84
92
133
79
3
44
48
38
25
99
89
170
154
75
94
134
28
67
102
12
125
39
110
55
149
139
70
87
162
5
153
65
160
101
151
122
169
82
18
179
66
22
140
114
123
172
117
56
63
159
138
91
62
127
68
152
69
32
137
11
167
64
164
26
109
171
108
19
111
7
58
161
155
146
20
83
13
95
47
145
54
176
41
49
57
78
52
121
177
128
115
4
98
166
97
180
60
35
30
144
50
141
51
178
105
15
136
103
126
96
61
29
158
71
72
46
40
80
156
77
37
85
16
120
24
14
107
112
135
104
124
168
6
116
27
23
31
73
143
93
100
43
113
119
9
174
90
163
86
118
81
165
36
42
53
33
76

> <PUBCHEM_MMFF94_PARTIAL_CHARGES>
5
1 -0.43
10 0.66
2 -0.57
4 0.28
9 0.06

> <PUBCHEM_EFFECTIVE_ROTOR_COUNT>
7

> <PUBCHEM_PHARMACOPHORE_FEATURES>
3
1 12 hydrophobe
1 2 acceptor
1 8 hydrophobe

> <PUBCHEM_HEAVY_ATOM_COUNT>
12

> <PUBCHEM_ATOM_DEF_STEREO_COUNT>
0

> <PUBCHEM_ATOM_UDEF_STEREO_COUNT>
1

> <PUBCHEM_BOND_DEF_STEREO_COUNT>
0

> <PUBCHEM_BOND_UDEF_STEREO_COUNT>
0

> <PUBCHEM_ISOTOPIC_ATOM_COUNT>
0

> <PUBCHEM_COMPONENT_COUNT>
1

> <PUBCHEM_CACTVS_TAUTO_COUNT>
1

> <PUBCHEM_CONFORMER_ID>
0003B7D600000001

> <PUBCHEM_MMFF94_ENERGY>
7.9659

> <PUBCHEM_FEATURE_SELFOVERLAP>
15.223

> <PUBCHEM_SHAPE_FINGERPRINT>
100836 57 9007060188264355915
10726558 24 10881400915513475016
11046707 91 18411135805581344603
11806522 49 18334013887203979626
12346645 44 9511465515514313499
13690532 89 18113900442278442554
1420 369 18412266116420119894
14252887 29 17418104208180965014
177051 138 18410294696566431662
18186145 218 14562536201807197493
193927 3 18262250957534180459
200 152 18114183016529157314
20281475 54 18337397144765130353
20621476 91 18057298730574296834
20645477 70 17603591862757567555
20671657 53 17821451239994864052
20711985 327 18060421334911916977
20871998 22 17916881144077535997
21501925 9 18413387652681946096
22485316 2 18411136957033383101
23402539 116 18410851023427062031
23402655 69 12396290461547164267
23557571 272 17702674215840524260
3086196 2 18271242707838835816
449060 50 13470689247907631463
76465 3 18340763836363458143

> <PUBCHEM_SHAPE_MULTIPOLES>
235.22
9.13
1.96
0.87
0.71
0.59
0.1
-8.01
-0.74
0.51
-0.3
-0.3
0.13
-0.75

> <PUBCHEM_SHAPE_SELFOVERLAP>
430.134

> <PUBCHEM_SHAPE_VOLUME>
150.3

> <PUBCHEM_COORDINATE_TYPE>
2
5
10

$$$$
