243799
  -OEChem-11232108503D

 37 37  0     0  0  0  0  0  0999 V2000
   -0.9123   -0.4088   -0.3798 O   0  0  0  0  0  0  0  0  0  0  0  0
   -2.4647   -2.1002   -0.1580 O   0  0  0  0  0  0  0  0  0  0  0  0
   -5.5864    0.9470    0.0768 C   0  0  0  0  0  0  0  0  0  0  0  0
   -4.6005   -0.2248    0.0390 C   0  0  0  0  0  0  0  0  0  0  0  0
   -7.0106    0.4634    0.3504 C   0  0  0  0  0  0  0  0  0  0  0  0
   -3.1609    0.2302   -0.1997 C   0  0  0  0  0  0  0  0  0  0  0  0
   -7.9875    1.6255    0.4337 C   0  0  0  0  0  0  0  0  0  0  0  0
   -2.1742   -0.9155   -0.2489 C   0  0  0  0  0  0  0  0  0  0  0  0
    0.1408   -1.3775   -0.4098 C   0  0  0  0  0  0  0  0  0  0  0  0
    1.4461   -0.6633   -0.5560 C   0  0  0  0  0  0  0  0  0  0  0  0
    3.7532   -0.0970    0.2226 C   0  0  0  0  0  0  0  0  0  0  0  0
    2.4471   -0.7682    0.3319 C   0  0  0  0  0  0  0  0  0  0  0  0
    3.8808    1.0115   -0.5996 C   0  0  0  0  0  0  0  0  0  0  0  0
    4.8310   -0.5860    0.9439 C   0  0  0  0  0  0  0  0  0  0  0  0
    5.1180    1.6472   -0.7033 C   0  0  0  0  0  0  0  0  0  0  0  0
    6.0683    0.0499    0.8403 C   0  0  0  0  0  0  0  0  0  0  0  0
    6.2116    1.1665    0.0165 C   0  0  0  0  0  0  0  0  0  0  0  0
   -5.5551    1.4852   -0.8782 H   0  0  0  0  0  0  0  0  0  0  0  0
   -5.2818    1.6546    0.8575 H   0  0  0  0  0  0  0  0  0  0  0  0
   -4.6526   -0.7796    0.9844 H   0  0  0  0  0  0  0  0  0  0  0  0
   -4.8974   -0.9269   -0.7503 H   0  0  0  0  0  0  0  0  0  0  0  0
   -7.3301   -0.2212   -0.4438 H   0  0  0  0  0  0  0  0  0  0  0  0
   -7.0398   -0.0963    1.2925 H   0  0  0  0  0  0  0  0  0  0  0  0
   -3.0993    0.7685   -1.1522 H   0  0  0  0  0  0  0  0  0  0  0  0
   -2.8565    0.9055    0.6083 H   0  0  0  0  0  0  0  0  0  0  0  0
   -7.7144    2.3107    1.2426 H   0  0  0  0  0  0  0  0  0  0  0  0
   -8.0057    2.1903   -0.5040 H   0  0  0  0  0  0  0  0  0  0  0  0
   -8.9995    1.2568    0.6280 H   0  0  0  0  0  0  0  0  0  0  0  0
    0.1108   -1.9747    0.5092 H   0  0  0  0  0  0  0  0  0  0  0  0
   -0.0015   -2.0407   -1.2709 H   0  0  0  0  0  0  0  0  0  0  0  0
    1.5452   -0.0678   -1.4585 H   0  0  0  0  0  0  0  0  0  0  0  0
    2.3140   -1.4017    1.2061 H   0  0  0  0  0  0  0  0  0  0  0  0
    3.0530    1.4334   -1.1605 H   0  0  0  0  0  0  0  0  0  0  0  0
    4.7356   -1.4556    1.5888 H   0  0  0  0  0  0  0  0  0  0  0  0
    5.2292    2.5198   -1.3405 H   0  0  0  0  0  0  0  0  0  0  0  0
    6.9201   -0.3242    1.4007 H   0  0  0  0  0  0  0  0  0  0  0  0
    7.1746    1.6623   -0.0632 H   0  0  0  0  0  0  0  0  0  0  0  0
  1  8  1  0  0  0  0
  1  9  1  0  0  0  0
  2  8  2  0  0  0  0
  3  4  1  0  0  0  0
  3  5  1  0  0  0  0
  3 18  1  0  0  0  0
  3 19  1  0  0  0  0
  4  6  1  0  0  0  0
  4 20  1  0  0  0  0
  4 21  1  0  0  0  0
  5  7  1  0  0  0  0
  5 22  1  0  0  0  0
  5 23  1  0  0  0  0
  6  8  1  0  0  0  0
  6 24  1  0  0  0  0
  6 25  1  0  0  0  0
  7 26  1  0  0  0  0
  7 27  1  0  0  0  0
  7 28  1  0  0  0  0
  9 10  1  0  0  0  0
  9 29  1  0  0  0  0
  9 30  1  0  0  0  0
 10 12  2  3  0  0  0
 10 31  1  0  0  0  0
 11 12  1  0  0  0  0
 11 13  2  0  0  0  0
 11 14  1  0  0  0  0
 12 32  1  0  0  0  0
 13 15  1  0  0  0  0
 13 33  1  0  0  0  0
 14 16  2  0  0  0  0
 14 34  1  0  0  0  0
 15 17  2  0  0  0  0
 15 35  1  0  0  0  0
 16 17  1  0  0  0  0
 16 36  1  0  0  0  0
 17 37  1  0  0  0  0
M  END
> <PUBCHEM_COMPOUND_CID>
243799

> <PUBCHEM_CONFORMER_RMSD>
0.8

> <PUBCHEM_CONFORMER_DIVERSEORDER>
1
150
132
216
15
34
104
28
122
59
153
145
95
76
2
127
196
6
151
137
185
135
208
199
12
206
11
10
63
3
106
131
82
62
71
50
177
117
4
26
181
209
123
186
118
88
33
83
205
154
99
98
20
86
9
53
173
41
160
207
84
112
193
23
39
60
35
212
91
51
180
36
45
49
125
7
92
101
105
5
61
87
210
37
102
46
65
57
164
191
133
142
168
64
194
204
195
174
27
70
111
96
19
81
120
16
152
198
169
13
140
110
189
89
202
103
167
17
214
121
183
139
213
200
107
124
201
58
138
30
134
47
54
31
166
22
97
55
44
8
215
18
161
48
25
14
179
38
66
178
197
24
21
93
141
32
69
149
128
74
100
136
157
176
217
165
114
147
148
108
211
171
85
129
40
115
155
144
203
42
67
126
79
156
75
182
109
116
72
146
77
80
56
90
188
113
68
159
163
175
29
158
143
119
43
184
187
162
94
52
73
190
170
78
172
130
192

> <PUBCHEM_MMFF94_PARTIAL_CHARGES>
20
1 -0.43
10 -0.29
11 0.03
12 -0.18
13 -0.15
14 -0.15
15 -0.15
16 -0.15
17 -0.15
2 -0.57
31 0.15
32 0.15
33 0.15
34 0.15
35 0.15
36 0.15
37 0.15
6 0.06
8 0.66
9 0.42

> <PUBCHEM_EFFECTIVE_ROTOR_COUNT>
8

> <PUBCHEM_PHARMACOPHORE_FEATURES>
4
1 2 acceptor
1 7 hydrophobe
4 3 4 5 6 hydrophobe
6 11 13 14 15 16 17 rings

> <PUBCHEM_HEAVY_ATOM_COUNT>
17

> <PUBCHEM_ATOM_DEF_STEREO_COUNT>
0

> <PUBCHEM_ATOM_UDEF_STEREO_COUNT>
0

> <PUBCHEM_BOND_DEF_STEREO_COUNT>
0

> <PUBCHEM_BOND_UDEF_STEREO_COUNT>
1

> <PUBCHEM_ISOTOPIC_ATOM_COUNT>
0

> <PUBCHEM_COMPONENT_COUNT>
1

> <PUBCHEM_CACTVS_TAUTO_COUNT>
1

> <PUBCHEM_CONFORMER_ID>
0003B85700000001

> <PUBCHEM_MMFF94_ENERGY>
24.1235

> <PUBCHEM_FEATURE_SELFOVERLAP>
20.297

> <PUBCHEM_SHAPE_FINGERPRINT>
10 15 18114187436820553809
100836 57 18342458148915538502
10354089 29 17967250906150083348
10688039 33 17022899034580895332
11638347 137 17095525067877357035
117890 112 18413670214243100119
125118 31 18335423418309445277
12596602 18 17821731650025498337
12670543 26 12391517464670596827
12714333 28 17132112437966986567
13167372 99 18336263457650420688
13177829 20 17603873321202937281
13533116 47 17774439374171705958
13668630 136 8358263652448459192
13685833 64 11386371439306639327
13964095 4 11455894642506402227
14251764 18 18333732442539933997
14341114 176 17603300449753697348
15048467 5 18342457036977847265
15348495 7 16588314933292825273
15690457 1 12251909213591315241
15778101 99 18411703218058826383
17980427 23 18262237828241020807
18006028 8 11746938690103715855
20281389 69 18333730204355914853
20526848 3 18342742901543269673
20621476 66 18411419531078629380
20645477 70 11887690480879487756
20735858 18 15791734092471455913
20767249 213 18412544314726563171
21130983 4 18413390925953349881
21150785 3 13830128391084130265
21267235 1 10809341126820832290
212847 35 18413103987941697656
21521239 73 12319743557253994876
221357 26 14261352444566286682
22224240 67 17312822680578019563
22288116 15 17346020261289053573
23035841 295 8646767799107035773
23198884 109 14908185240188684403
23559900 14 10447627098978012295
246663 6 13406794398256155456
2767999 5 18131068229803620625
29717793 49 11600010963799418514
312425 54 16805605884440592571
351380 3 7997971266963724225
4340502 62 17167581574703412355
465052 167 11097857380427883442
5104073 3 17895748638408975690
59682541 35 18261399966727467137
59682541 52 16486984938156615430
6438161 24 11599727233922913668
7062679 6 18343024380477350441
8272917 22 18408038499418905018

> <PUBCHEM_SHAPE_MULTIPOLES>
338.11
21.73
1.6
0.83
24.55
0.01
0.05
-12.58
4.46
0.33
-0.17
-0.63
-0.03
-1.13

> <PUBCHEM_SHAPE_SELFOVERLAP>
671.874

> <PUBCHEM_SHAPE_VOLUME>
200.7

> <PUBCHEM_COORDINATE_TYPE>
2
5
10

$$$$
