24516
  -OEChem-11232109093D

 35 34  0     0  0  0  0  0  0999 V2000
   -1.9753   -0.1729   -0.2303 O   0  0  0  0  0  0  0  0  0  0  0  0
   -0.8029    1.7283    0.3455 O   0  0  0  0  0  0  0  0  0  0  0  0
    2.8990   -0.5315   -0.1783 C   0  0  0  0  0  0  0  0  0  0  0  0
    1.6885    0.3738    0.0701 C   0  0  0  0  0  0  0  0  0  0  0  0
    4.2095    0.2024    0.1131 C   0  0  0  0  0  0  0  0  0  0  0  0
    0.3643   -0.3241   -0.2400 C   0  0  0  0  0  0  0  0  0  0  0  0
    5.4195   -0.6901   -0.1614 C   0  0  0  0  0  0  0  0  0  0  0  0
   -4.3886   -0.4115   -0.3034 C   0  0  0  0  0  0  0  0  0  0  0  0
   -3.2086    0.5224   -0.0204 C   0  0  0  0  0  0  0  0  0  0  0  0
   -0.8427    0.5580   -0.0087 C   0  0  0  0  0  0  0  0  0  0  0  0
   -5.7092    0.3446   -0.1745 C   0  0  0  0  0  0  0  0  0  0  0  0
   -4.3763   -1.6237    0.6301 C   0  0  0  0  0  0  0  0  0  0  0  0
    6.7228    0.0244    0.1583 C   0  0  0  0  0  0  0  0  0  0  0  0
    2.8923   -0.8721   -1.2209 H   0  0  0  0  0  0  0  0  0  0  0  0
    2.8259   -1.4239    0.4548 H   0  0  0  0  0  0  0  0  0  0  0  0
    1.7749    1.2777   -0.5461 H   0  0  0  0  0  0  0  0  0  0  0  0
    1.6886    0.7085    1.1151 H   0  0  0  0  0  0  0  0  0  0  0  0
    4.2213    0.5279    1.1604 H   0  0  0  0  0  0  0  0  0  0  0  0
    4.2725    1.1051   -0.5066 H   0  0  0  0  0  0  0  0  0  0  0  0
    0.3532   -0.6412   -1.2889 H   0  0  0  0  0  0  0  0  0  0  0  0
    0.2646   -1.2098    0.3980 H   0  0  0  0  0  0  0  0  0  0  0  0
    5.4250   -0.9968   -1.2138 H   0  0  0  0  0  0  0  0  0  0  0  0
    5.3538   -1.6028    0.4423 H   0  0  0  0  0  0  0  0  0  0  0  0
   -4.2964   -0.7878   -1.3303 H   0  0  0  0  0  0  0  0  0  0  0  0
   -3.2484    0.8832    1.0149 H   0  0  0  0  0  0  0  0  0  0  0  0
   -3.2479    1.3844   -0.6975 H   0  0  0  0  0  0  0  0  0  0  0  0
   -6.5563   -0.3097   -0.4062 H   0  0  0  0  0  0  0  0  0  0  0  0
   -5.7420    1.1910   -0.8684 H   0  0  0  0  0  0  0  0  0  0  0  0
   -5.8485    0.7324    0.8404 H   0  0  0  0  0  0  0  0  0  0  0  0
   -5.2254   -2.2829    0.4201 H   0  0  0  0  0  0  0  0  0  0  0  0
   -4.4384   -1.3165    1.6797 H   0  0  0  0  0  0  0  0  0  0  0  0
   -3.4621   -2.2125    0.5026 H   0  0  0  0  0  0  0  0  0  0  0  0
    6.8349    0.9270   -0.4510 H   0  0  0  0  0  0  0  0  0  0  0  0
    7.5748   -0.6315   -0.0461 H   0  0  0  0  0  0  0  0  0  0  0  0
    6.7629    0.3145    1.2131 H   0  0  0  0  0  0  0  0  0  0  0  0
  1  9  1  0  0  0  0
  1 10  1  0  0  0  0
  2 10  2  0  0  0  0
  3  4  1  0  0  0  0
  3  5  1  0  0  0  0
  3 14  1  0  0  0  0
  3 15  1  0  0  0  0
  4  6  1  0  0  0  0
  4 16  1  0  0  0  0
  4 17  1  0  0  0  0
  5  7  1  0  0  0  0
  5 18  1  0  0  0  0
  5 19  1  0  0  0  0
  6 10  1  0  0  0  0
  6 20  1  0  0  0  0
  6 21  1  0  0  0  0
  7 13  1  0  0  0  0
  7 22  1  0  0  0  0
  7 23  1  0  0  0  0
  8  9  1  0  0  0  0
  8 11  1  0  0  0  0
  8 12  1  0  0  0  0
  8 24  1  0  0  0  0
  9 25  1  0  0  0  0
  9 26  1  0  0  0  0
 11 27  1  0  0  0  0
 11 28  1  0  0  0  0
 11 29  1  0  0  0  0
 12 30  1  0  0  0  0
 12 31  1  0  0  0  0
 12 32  1  0  0  0  0
 13 33  1  0  0  0  0
 13 34  1  0  0  0  0
 13 35  1  0  0  0  0
M  END
> <PUBCHEM_COMPOUND_CID>
24516

> <PUBCHEM_CONFORMER_RMSD>
0.8

> <PUBCHEM_CONFORMER_DIVERSEORDER>
1
101
222
175
140
207
95
93
42
62
137
214
36
38
217
144
2
78
228
9
202
46
100
108
126
178
113
125
19
97
53
89
129
224
39
6
218
81
141
90
219
16
166
32
225
68
211
103
66
161
5
7
17
210
41
149
206
221
8
226
146
76
170
25
136
201
153
135
102
20
23
174
193
34
179
77
15
31
145
86
48
4
54
181
143
49
216
50
26
208
67
112
168
59
197
162
10
63
154
117
220
45
65
91
205
85
21
172
44
73
213
200
14
160
155
43
123
116
185
165
110
37
177
142
138
99
212
122
98
180
57
106
47
173
182
22
94
82
109
188
196
28
158
11
115
119
69
55
199
150
29
147
190
134
118
223
13
184
120
163
132
157
169
92
186
171
191
204
164
3
187
189
56
195
105
87
151
114
35
71
61
121
183
70
227
194
131
192
152
18
24
40
12
104
27
88
128
176
72
84
133
83
52
215
124
74
159
111
167
127
75
107
58
148
96
203
60
30
198
209
79
130
51
139
64
33
80
156

> <PUBCHEM_MMFF94_PARTIAL_CHARGES>
5
1 -0.43
10 0.66
2 -0.57
6 0.06
9 0.28

> <PUBCHEM_EFFECTIVE_ROTOR_COUNT>
8

> <PUBCHEM_PHARMACOPHORE_FEATURES>
4
1 13 hydrophobe
1 2 acceptor
3 8 11 12 hydrophobe
5 3 4 5 6 7 hydrophobe

> <PUBCHEM_HEAVY_ATOM_COUNT>
13

> <PUBCHEM_ATOM_DEF_STEREO_COUNT>
0

> <PUBCHEM_ATOM_UDEF_STEREO_COUNT>
0

> <PUBCHEM_BOND_DEF_STEREO_COUNT>
0

> <PUBCHEM_BOND_UDEF_STEREO_COUNT>
0

> <PUBCHEM_ISOTOPIC_ATOM_COUNT>
0

> <PUBCHEM_COMPONENT_COUNT>
1

> <PUBCHEM_CACTVS_TAUTO_COUNT>
1

> <PUBCHEM_CONFORMER_ID>
00005FC400000001

> <PUBCHEM_MMFF94_ENERGY>
4.3867

> <PUBCHEM_FEATURE_SELFOVERLAP>
20.297

> <PUBCHEM_SHAPE_FINGERPRINT>
10354089 29 12967128315955272214
10968037 39 18410575093337487655
11287383 113 18408323315515544992
12091667 2 16370725924383397013
12714333 28 15647052664143827748
12815109 37 18410855455833207510
13533116 47 17023172796407641776
13740256 8 18338518650535560731
14123238 8 17775566433908959886
1420 363 18343024393552032982
14251718 22 18113618993429958858
14251731 8 18187080659321181415
14251732 16 18338797926947808888
14251764 46 15574715794184080235
14252887 29 17346608452032075726
17834072 33 17968099750427437860
17834072 8 18260542325708074981
17834076 25 11746937585953904476
187816 3 14273737347757342557
200 152 18187364324462103264
220451 1 17313103038230145850
23035841 295 18187365424042491395
23402539 116 15719390637773176375
23402655 69 12179835113302705667
23557571 272 18339362959306767516
23559900 14 18334571390711874808
26918003 58 18410856568472414763
42788 4 18411136931263598860
4463277 17 18343582940937323968
474229 33 18412545418449217046
54446538 1 11959727179078769859
57483677 66 18186799171496817098
8209 1 18410854356685550740

> <PUBCHEM_SHAPE_MULTIPOLES>
255.8
15.8
1.14
0.67
11.05
0.05
-0.01
2.78
-0.19
-0.99
-0.17
-0.12
0.05
0.37

> <PUBCHEM_SHAPE_SELFOVERLAP>
466.069

> <PUBCHEM_SHAPE_VOLUME>
164

> <PUBCHEM_COORDINATE_TYPE>
2
5
10

$$$$
