246089
  -OEChem-11232109093D

 38 38  0     1  0  0  0  0  0999 V2000
    3.1212   -0.2278    0.8617 O   0  0  0  0  0  0  0  0  0  0  0  0
    2.1088   -0.0028   -1.2466 O   0  0  0  0  0  0  0  0  0  0  0  0
    1.9925   -0.6019    0.0546 C   0  0  2  0  0  0  0  0  0  0  0  0
    0.7239   -0.0964    0.7300 C   0  0  0  0  0  0  0  0  0  0  0  0
   -0.5187   -0.4178   -0.1001 C   0  0  0  0  0  0  0  0  0  0  0  0
    4.0491    0.3505   -0.0604 C   0  0  1  0  0  0  0  0  0  0  0  0
   -1.7938    0.0615    0.5976 C   0  0  0  0  0  0  0  0  0  0  0  0
    3.1512    0.9637   -1.1072 C   0  0  0  0  0  0  0  0  0  0  0  0
    1.9681   -2.1166   -0.1070 C   0  0  0  0  0  0  0  0  0  0  0  0
   -3.0325   -0.2273   -0.2534 C   0  0  0  0  0  0  0  0  0  0  0  0
   -4.3320    0.2962    0.3649 C   0  0  0  0  0  0  0  0  0  0  0  0
    4.9452    1.3482    0.6417 C   0  0  0  0  0  0  0  0  0  0  0  0
   -5.5594    0.0728   -0.5194 C   0  0  0  0  0  0  0  0  0  0  0  0
   -6.8236    0.5978    0.1438 C   0  0  0  0  0  0  0  0  0  0  0  0
    0.6364   -0.5241    1.7367 H   0  0  0  0  0  0  0  0  0  0  0  0
    0.7906    0.9908    0.8675 H   0  0  0  0  0  0  0  0  0  0  0  0
   -0.4471    0.0560   -1.0862 H   0  0  0  0  0  0  0  0  0  0  0  0
   -0.6116   -1.4966   -0.2618 H   0  0  0  0  0  0  0  0  0  0  0  0
    4.6452   -0.4648   -0.4879 H   0  0  0  0  0  0  0  0  0  0  0  0
   -1.8941   -0.4324    1.5715 H   0  0  0  0  0  0  0  0  0  0  0  0
   -1.7247    1.1396    0.7865 H   0  0  0  0  0  0  0  0  0  0  0  0
    2.6989    1.9041   -0.7729 H   0  0  0  0  0  0  0  0  0  0  0  0
    3.6522    1.1263   -2.0651 H   0  0  0  0  0  0  0  0  0  0  0  0
    2.9477   -2.4736   -0.4476 H   0  0  0  0  0  0  0  0  0  0  0  0
    1.7670   -2.6179    0.8455 H   0  0  0  0  0  0  0  0  0  0  0  0
    1.2460   -2.4497   -0.8580 H   0  0  0  0  0  0  0  0  0  0  0  0
   -3.1205   -1.3090   -0.4135 H   0  0  0  0  0  0  0  0  0  0  0  0
   -2.9030    0.2292   -1.2428 H   0  0  0  0  0  0  0  0  0  0  0  0
   -4.2257    1.3696    0.5657 H   0  0  0  0  0  0  0  0  0  0  0  0
   -4.4873   -0.1926    1.3348 H   0  0  0  0  0  0  0  0  0  0  0  0
    5.5273    0.8509    1.4248 H   0  0  0  0  0  0  0  0  0  0  0  0
    5.6359    1.8237   -0.0609 H   0  0  0  0  0  0  0  0  0  0  0  0
    4.3555    2.1266    1.1382 H   0  0  0  0  0  0  0  0  0  0  0  0
   -5.6772   -0.9971   -0.7262 H   0  0  0  0  0  0  0  0  0  0  0  0
   -5.4197    0.5769   -1.4826 H   0  0  0  0  0  0  0  0  0  0  0  0
   -7.0074    0.0897    1.0958 H   0  0  0  0  0  0  0  0  0  0  0  0
   -6.7483    1.6728    0.3363 H   0  0  0  0  0  0  0  0  0  0  0  0
   -7.6894    0.4287   -0.5042 H   0  0  0  0  0  0  0  0  0  0  0  0
  1  3  1  0  0  0  0
  1  6  1  0  0  0  0
  2  3  1  0  0  0  0
  2  8  1  0  0  0  0
  3  4  1  0  0  0  0
  3  9  1  0  0  0  0
  4  5  1  0  0  0  0
  4 15  1  0  0  0  0
  4 16  1  0  0  0  0
  5  7  1  0  0  0  0
  5 17  1  0  0  0  0
  5 18  1  0  0  0  0
  6  8  1  0  0  0  0
  6 12  1  0  0  0  0
  6 19  1  0  0  0  0
  7 10  1  0  0  0  0
  7 20  1  0  0  0  0
  7 21  1  0  0  0  0
  8 22  1  0  0  0  0
  8 23  1  0  0  0  0
  9 24  1  0  0  0  0
  9 25  1  0  0  0  0
  9 26  1  0  0  0  0
 10 11  1  0  0  0  0
 10 27  1  0  0  0  0
 10 28  1  0  0  0  0
 11 13  1  0  0  0  0
 11 29  1  0  0  0  0
 11 30  1  0  0  0  0
 12 31  1  0  0  0  0
 12 32  1  0  0  0  0
 12 33  1  0  0  0  0
 13 14  1  0  0  0  0
 13 34  1  0  0  0  0
 13 35  1  0  0  0  0
 14 36  1  0  0  0  0
 14 37  1  0  0  0  0
 14 38  1  0  0  0  0
M  END
> <PUBCHEM_COMPOUND_CID>
246089

> <PUBCHEM_CONFORMER_RMSD>
0.8

> <PUBCHEM_CONFORMER_DIVERSEORDER>
1
96
21
91
60
108
19
87
120
11
52
128
6
37
83
18
115
101
10
90
22
126
84
3
113
4
124
7
125
12
106
16
34
15
112
107
70
97
51
9
88
43
2
76
95
46
31
127
102
118
94
64
32
33
79
8
73
80
36
41
14
119
110
5
63
78
42
109
68
99
59
30
116
24
122
98
27
17
92
29
39
121
20
104
86
114
25
67
38
56
28
65
77
100
69
44
93
26
23
53
71
81
85
72
47
105
75
82
13
57
61
89
66
40
117
48
45
49
62
123
55
74
58
103
111
50
35
54

> <PUBCHEM_MMFF94_PARTIAL_CHARGES>
5
1 -0.56
2 -0.56
3 0.56
6 0.28
8 0.28

> <PUBCHEM_EFFECTIVE_ROTOR_COUNT>
7

> <PUBCHEM_PHARMACOPHORE_FEATURES>
6
1 1 acceptor
1 14 hydrophobe
1 2 acceptor
3 10 11 13 hydrophobe
3 4 5 7 hydrophobe
5 1 2 3 6 8 rings

> <PUBCHEM_HEAVY_ATOM_COUNT>
14

> <PUBCHEM_ATOM_DEF_STEREO_COUNT>
0

> <PUBCHEM_ATOM_UDEF_STEREO_COUNT>
2

> <PUBCHEM_BOND_DEF_STEREO_COUNT>
0

> <PUBCHEM_BOND_UDEF_STEREO_COUNT>
0

> <PUBCHEM_ISOTOPIC_ATOM_COUNT>
0

> <PUBCHEM_COMPONENT_COUNT>
1

> <PUBCHEM_CACTVS_TAUTO_COUNT>
1

> <PUBCHEM_CONFORMER_ID>
0003C14900000001

> <PUBCHEM_MMFF94_ENERGY>
17.7564

> <PUBCHEM_FEATURE_SELFOVERLAP>
30.499

> <PUBCHEM_SHAPE_FINGERPRINT>
10354089 29 17385723599427679188
10912923 1 17917993837540426035
114248 4 17132115753766070161
117890 112 18334575716445496589
12616999 72 16128660734336095870
12714333 28 18202281424454477489
12916748 109 17386009434439747533
13167372 99 18041276557208952829
13533116 47 17895749604428756618
14123238 8 17704070690507997801
14251718 22 17560799957405939509
15048467 5 18342737425359740465
15242433 33 18059855056696464391
15242439 84 12751235909343358247
17834072 33 15697995262720528945
17834076 25 18202281407548726409
20279233 1 17095250202597001171
20281389 69 18339083663049639689
20645477 70 18200033928325084775
20724930 37 16515683355514323928
20871999 31 16916211308223942423
21150785 3 17988633126345852429
212847 35 15502380032030548246
23402539 116 17385436661490035787
23402655 69 18131912654865627767
23532345 1 18335707143284068435
26918003 58 15791451534920620577
300161 21 18410568488342508999
3060560 45 16774079579079344028
3545911 37 18260551116952469007
4047638 21 18040999544354628842
4072396 5 18187637016731879760
42 15 13839981118664161105
42788 4 17749107786351346281
465052 167 9079115578852198969
522135 26 17846217726546903583
5374978 207 16442782423225926021
6025842 7 18272652307616013150
94968 8 12391518572592655380

> <PUBCHEM_SHAPE_MULTIPOLES>
276.37
13.86
1.23
0.95
21.11
0.47
-0.12
-5.16
0.04
-1.43
-0.01
-0.55
-0.12
-0.04

> <PUBCHEM_SHAPE_SELFOVERLAP>
526.181

> <PUBCHEM_SHAPE_VOLUME>
172.3

> <PUBCHEM_COORDINATE_TYPE>
2
5
10

$$$$
