246929
  -OEChem-11232108463D

 32 32  0     1  0  0  0  0  0999 V2000
    2.4014   -0.4485   -0.3387 O   0  0  0  0  0  0  0  0  0  0  0  0
   -0.5560    2.1919    1.2583 O   0  0  0  0  0  0  0  0  0  0  0  0
    1.6177    0.4756    1.6195 O   0  0  0  0  0  0  0  0  0  0  0  0
    0.7800    1.2557   -0.5381 C   0  0  1  0  0  0  0  0  0  0  0  0
   -0.1164    0.3973   -1.4500 C   0  0  0  0  0  0  0  0  0  0  0  0
   -1.1749   -0.4026   -0.7254 C   0  0  0  0  0  0  0  0  0  0  0  0
   -0.0315    2.3505    0.1560 C   0  0  0  0  0  0  0  0  0  0  0  0
    1.6242    0.4015    0.3982 C   0  0  0  0  0  0  0  0  0  0  0  0
   -0.8767   -1.6834   -0.2910 C   0  0  0  0  0  0  0  0  0  0  0  0
   -2.4213    0.1615   -0.5100 C   0  0  0  0  0  0  0  0  0  0  0  0
   -0.1980    3.6505   -0.5915 C   0  0  0  0  0  0  0  0  0  0  0  0
   -1.8531   -2.4216    0.3778 C   0  0  0  0  0  0  0  0  0  0  0  0
   -3.3976   -0.5767    0.1589 C   0  0  0  0  0  0  0  0  0  0  0  0
    3.2646   -1.3060    0.4146 C   0  0  0  0  0  0  0  0  0  0  0  0
   -3.1134   -1.8683    0.6028 C   0  0  0  0  0  0  0  0  0  0  0  0
    4.0509   -2.1774   -0.5415 C   0  0  0  0  0  0  0  0  0  0  0  0
    1.5107    1.7848   -1.1666 H   0  0  0  0  0  0  0  0  0  0  0  0
    0.4980   -0.2887   -2.0482 H   0  0  0  0  0  0  0  0  0  0  0  0
   -0.6112    1.0441   -2.1872 H   0  0  0  0  0  0  0  0  0  0  0  0
    0.0984   -2.1282   -0.4654 H   0  0  0  0  0  0  0  0  0  0  0  0
   -2.6550    1.1647   -0.8543 H   0  0  0  0  0  0  0  0  0  0  0  0
   -0.7899    4.3468    0.0092 H   0  0  0  0  0  0  0  0  0  0  0  0
    0.7829    4.0948   -0.7775 H   0  0  0  0  0  0  0  0  0  0  0  0
   -0.7171    3.4704   -1.5355 H   0  0  0  0  0  0  0  0  0  0  0  0
   -1.6323   -3.4277    0.7221 H   0  0  0  0  0  0  0  0  0  0  0  0
   -4.3794   -0.1464    0.3335 H   0  0  0  0  0  0  0  0  0  0  0  0
    3.9527   -0.6979    1.0124 H   0  0  0  0  0  0  0  0  0  0  0  0
    2.6632   -1.9357    1.0797 H   0  0  0  0  0  0  0  0  0  0  0  0
   -3.8738   -2.4432    1.1232 H   0  0  0  0  0  0  0  0  0  0  0  0
    4.7224   -2.8478    0.0023 H   0  0  0  0  0  0  0  0  0  0  0  0
    3.3750   -2.7781   -1.1591 H   0  0  0  0  0  0  0  0  0  0  0  0
    4.6435   -1.5614   -1.2258 H   0  0  0  0  0  0  0  0  0  0  0  0
  1  8  1  0  0  0  0
  1 14  1  0  0  0  0
  2  7  2  0  0  0  0
  3  8  2  0  0  0  0
  4  5  1  0  0  0  0
  4  7  1  0  0  0  0
  4  8  1  0  0  0  0
  4 17  1  0  0  0  0
  5  6  1  0  0  0  0
  5 18  1  0  0  0  0
  5 19  1  0  0  0  0
  6  9  2  0  0  0  0
  6 10  1  0  0  0  0
  7 11  1  0  0  0  0
  9 12  1  0  0  0  0
  9 20  1  0  0  0  0
 10 13  2  0  0  0  0
 10 21  1  0  0  0  0
 11 22  1  0  0  0  0
 11 23  1  0  0  0  0
 11 24  1  0  0  0  0
 12 15  2  0  0  0  0
 12 25  1  0  0  0  0
 13 15  1  0  0  0  0
 13 26  1  0  0  0  0
 14 16  1  0  0  0  0
 14 27  1  0  0  0  0
 14 28  1  0  0  0  0
 15 29  1  0  0  0  0
 16 30  1  0  0  0  0
 16 31  1  0  0  0  0
 16 32  1  0  0  0  0
M  END
> <PUBCHEM_COMPOUND_CID>
246929

> <PUBCHEM_CONFORMER_RMSD>
0.8

> <PUBCHEM_CONFORMER_DIVERSEORDER>
1
9
29
106
67
66
110
2
104
72
86
14
32
48
82
37
60
113
49
107
96
90
85
43
74
73
41
121
44
122
59
25
3
16
64
127
112
56
98
78
115
39
101
126
23
34
27
84
109
26
89
7
51
50
93
5
125
92
87
94
8
13
35
58
70
128
20
117
53
15
63
68
111
83
22
99
114
55
102
75
47
123
79
12
77
30
21
11
108
40
105
33
17
38
4
57
10
52
118
46
116
28
91
124
80
61
62
45
24
103
6
120
69
88
71
95
42
119
36
76
97
18
81
65
100
54
19
31

> <PUBCHEM_MMFF94_PARTIAL_CHARGES>
20
1 -0.43
10 -0.15
11 0.06
12 -0.15
13 -0.15
14 0.28
15 -0.15
2 -0.57
20 0.15
21 0.15
25 0.15
26 0.15
29 0.15
3 -0.57
4 0.12
5 0.14
6 -0.14
7 0.45
8 0.66
9 -0.15

> <PUBCHEM_EFFECTIVE_ROTOR_COUNT>
6

> <PUBCHEM_PHARMACOPHORE_FEATURES>
4
1 2 acceptor
1 3 acceptor
1 4 anion
6 6 9 10 12 13 15 rings

> <PUBCHEM_HEAVY_ATOM_COUNT>
16

> <PUBCHEM_ATOM_DEF_STEREO_COUNT>
0

> <PUBCHEM_ATOM_UDEF_STEREO_COUNT>
1

> <PUBCHEM_BOND_DEF_STEREO_COUNT>
0

> <PUBCHEM_BOND_UDEF_STEREO_COUNT>
0

> <PUBCHEM_ISOTOPIC_ATOM_COUNT>
0

> <PUBCHEM_COMPONENT_COUNT>
1

> <PUBCHEM_CACTVS_TAUTO_COUNT>
5

> <PUBCHEM_CONFORMER_ID>
0003C49100000001

> <PUBCHEM_MMFF94_ENERGY>
29.2644

> <PUBCHEM_FEATURE_SELFOVERLAP>
20.301

> <PUBCHEM_SHAPE_FINGERPRINT>
104564 63 18195808462026019794
12507560 14 18272936059257472519
13027679 85 18409729551868943463
13533116 47 18049451636889587579
13571099 52 12607138313068730107
14648413 74 18120089747934178381
14817 1 16307041132660559373
16752209 62 18047735023441914726
16945 1 17823116987278751151
17804303 29 18334018315268256887
17841504 4 18266179624512760575
17990270 104 18120367915517136747
18186145 218 10737556177454742398
19784866 135 18264766558834704162
201361 129 17762069030850866793
20379382 53 17976251666679369581
20559304 39 18122911103345181443
20645477 70 17757539030323564359
20711983 138 18341044142708085666
22445834 79 17978232978248545295
23526113 38 18046872057306894837
238078 22 18335153002810010542
2748010 2 18339623620876690596
31174 14 18048320234738637515
4175511 71 18337399321923393161
427121 178 16911468865560433937
57426455 70 18409738339467022083
598444 67 18268986484198084671
7097593 13 18198064892062506371
7364860 26 17977105982792434101
81228 2 18267850710235671368

> <PUBCHEM_SHAPE_MULTIPOLES>
311.66
5.17
3.48
1.11
2.33
2.5
0.1
-5.3
0.26
0.11
0.03
0.16
0.25
0.5

> <PUBCHEM_SHAPE_SELFOVERLAP>
633.222

> <PUBCHEM_SHAPE_VOLUME>
180.7

> <PUBCHEM_COORDINATE_TYPE>
2
5
10

$$$$
