24752885
  -OEChem-11232108543D

 45 45  0     1  0  0  0  0  0999 V2000
   -0.1701    0.9191    0.5396 O   0  0  0  0  0  0  0  0  0  0  0  0
    0.2002    2.2018   -1.3416 O   0  0  0  0  0  0  0  0  0  0  0  0
    4.8989   -0.9277   -1.1335 O   0  0  0  0  0  0  0  0  0  0  0  0
    4.6741   -0.7319    1.1177 O   0  0  0  0  0  0  0  0  0  0  0  0
   -1.5231   -1.0829    0.4461 C   0  0  1  0  0  0  0  0  0  0  0  0
   -1.3281    0.3526   -0.0690 C   0  0  1  0  0  0  0  0  0  0  0  0
   -2.8343   -1.6789   -0.0824 C   0  0  0  0  0  0  0  0  0  0  0  0
   -3.8410    0.6357   -0.2807 C   0  0  1  0  0  0  0  0  0  0  0  0
   -2.5362    1.2353    0.2527 C   0  0  0  0  0  0  0  0  0  0  0  0
   -4.0339   -0.7920    0.2442 C   0  0  0  0  0  0  0  0  0  0  0  0
   -0.3413   -1.9784    0.0644 C   0  0  0  0  0  0  0  0  0  0  0  0
   -5.0325    1.5145    0.0952 C   0  0  0  0  0  0  0  0  0  0  0  0
   -0.4976   -3.3623    0.6877 C   0  0  0  0  0  0  0  0  0  0  0  0
   -0.2178   -2.0803   -1.4529 C   0  0  0  0  0  0  0  0  0  0  0  0
    0.5072    1.8391   -0.2141 C   0  0  0  0  0  0  0  0  0  0  0  0
    1.6806    2.3672    0.5812 C   0  0  0  0  0  0  0  0  0  0  0  0
    2.7174    1.2926    0.9070 C   0  0  0  0  0  0  0  0  0  0  0  0
    3.3243    0.6654   -0.3500 C   0  0  0  0  0  0  0  0  0  0  0  0
    4.3532   -0.3891   -0.0117 C   0  0  0  0  0  0  0  0  0  0  0  0
   -1.5719   -1.0432    1.5438 H   0  0  0  0  0  0  0  0  0  0  0  0
   -1.2298    0.3400   -1.1597 H   0  0  0  0  0  0  0  0  0  0  0  0
   -2.8172   -1.8025   -1.1695 H   0  0  0  0  0  0  0  0  0  0  0  0
   -3.0266   -2.6643    0.3536 H   0  0  0  0  0  0  0  0  0  0  0  0
   -3.7831    0.5980   -1.3767 H   0  0  0  0  0  0  0  0  0  0  0  0
   -2.6005    1.3811    1.3396 H   0  0  0  0  0  0  0  0  0  0  0  0
   -2.3854    2.2378   -0.1671 H   0  0  0  0  0  0  0  0  0  0  0  0
   -4.1841   -0.7740    1.3313 H   0  0  0  0  0  0  0  0  0  0  0  0
   -4.9387   -1.2314   -0.1929 H   0  0  0  0  0  0  0  0  0  0  0  0
    0.5849   -1.5421    0.4591 H   0  0  0  0  0  0  0  0  0  0  0  0
   -4.9104    2.5262   -0.3058 H   0  0  0  0  0  0  0  0  0  0  0  0
   -5.9621    1.1028   -0.3117 H   0  0  0  0  0  0  0  0  0  0  0  0
   -5.1438    1.5921    1.1822 H   0  0  0  0  0  0  0  0  0  0  0  0
   -1.2830   -3.9561    0.2102 H   0  0  0  0  0  0  0  0  0  0  0  0
   -0.7117   -3.2957    1.7595 H   0  0  0  0  0  0  0  0  0  0  0  0
    0.4347   -3.9279    0.5761 H   0  0  0  0  0  0  0  0  0  0  0  0
   -0.0378   -1.1191   -1.9390 H   0  0  0  0  0  0  0  0  0  0  0  0
    0.6564   -2.6982   -1.6957 H   0  0  0  0  0  0  0  0  0  0  0  0
   -1.0679   -2.5714   -1.9327 H   0  0  0  0  0  0  0  0  0  0  0  0
    2.1468    3.1722    0.0011 H   0  0  0  0  0  0  0  0  0  0  0  0
    1.2948    2.8223    1.5004 H   0  0  0  0  0  0  0  0  0  0  0  0
    2.2612    0.5080    1.5234 H   0  0  0  0  0  0  0  0  0  0  0  0
    3.5131    1.7415    1.5143 H   0  0  0  0  0  0  0  0  0  0  0  0
    3.8132    1.4400   -0.9510 H   0  0  0  0  0  0  0  0  0  0  0  0
    2.5445    0.1846   -0.9503 H   0  0  0  0  0  0  0  0  0  0  0  0
    5.5682   -1.6127   -0.9215 H   0  0  0  0  0  0  0  0  0  0  0  0
  1  6  1  0  0  0  0
  1 15  1  0  0  0  0
  2 15  2  0  0  0  0
  3 19  1  0  0  0  0
  3 45  1  0  0  0  0
  4 19  2  0  0  0  0
  5  6  1  0  0  0  0
  5  7  1  0  0  0  0
  5 11  1  0  0  0  0
  5 20  1  0  0  0  0
  6  9  1  0  0  0  0
  6 21  1  0  0  0  0
  7 10  1  0  0  0  0
  7 22  1  0  0  0  0
  7 23  1  0  0  0  0
  8  9  1  0  0  0  0
  8 10  1  0  0  0  0
  8 12  1  0  0  0  0
  8 24  1  0  0  0  0
  9 25  1  0  0  0  0
  9 26  1  0  0  0  0
 10 27  1  0  0  0  0
 10 28  1  0  0  0  0
 11 13  1  0  0  0  0
 11 14  1  0  0  0  0
 11 29  1  0  0  0  0
 12 30  1  0  0  0  0
 12 31  1  0  0  0  0
 12 32  1  0  0  0  0
 13 33  1  0  0  0  0
 13 34  1  0  0  0  0
 13 35  1  0  0  0  0
 14 36  1  0  0  0  0
 14 37  1  0  0  0  0
 14 38  1  0  0  0  0
 15 16  1  0  0  0  0
 16 17  1  0  0  0  0
 16 39  1  0  0  0  0
 16 40  1  0  0  0  0
 17 18  1  0  0  0  0
 17 41  1  0  0  0  0
 17 42  1  0  0  0  0
 18 19  1  0  0  0  0
 18 43  1  0  0  0  0
 18 44  1  0  0  0  0
M  END
> <PUBCHEM_COMPOUND_CID>
24752885

> <PUBCHEM_CONFORMER_RMSD>
0.8

> <PUBCHEM_CONFORMER_DIVERSEORDER>
1
19
45
77
34
80
160
117
62
18
140
167
26
44
59
81
7
172
109
75
89
38
67
107
65
98
69
41
131
33
50
133
85
12
66
99
139
2
74
134
35
30
97
95
173
132
174
29
101
110
144
43
78
84
79
153
102
157
143
60
135
16
48
56
15
82
40
24
145
155
138
150
175
166
111
171
169
152
142
8
52
170
119
148
164
90
37
31
28
116
86
6
124
36
100
159
27
64
126
168
10
46
92
137
162
51
88
11
105
161
121
63
73
104
58
70
146
158
103
122
112
118
149
22
115
91
76
93
113
25
17
156
141
96
57
5
4
13
71
87
14
123
94
68
83
32
9
3
55
47
21
42
136
165
147
20
151
154
130
114
39
108
129
176
61
125
128
49
120
72
106
163
23
54
53
127

> <PUBCHEM_MMFF94_PARTIAL_CHARGES>
10
1 -0.43
15 0.66
16 0.06
18 0.06
19 0.66
2 -0.57
3 -0.65
4 -0.57
45 0.5
6 0.28

> <PUBCHEM_EFFECTIVE_ROTOR_COUNT>
8.2

> <PUBCHEM_PHARMACOPHORE_FEATURES>
6
1 2 acceptor
1 3 acceptor
1 4 acceptor
3 11 13 14 hydrophobe
3 3 4 19 anion
6 5 6 7 8 9 10 rings

> <PUBCHEM_HEAVY_ATOM_COUNT>
19

> <PUBCHEM_ATOM_DEF_STEREO_COUNT>
3

> <PUBCHEM_ATOM_UDEF_STEREO_COUNT>
0

> <PUBCHEM_BOND_DEF_STEREO_COUNT>
0

> <PUBCHEM_BOND_UDEF_STEREO_COUNT>
0

> <PUBCHEM_ISOTOPIC_ATOM_COUNT>
0

> <PUBCHEM_COMPONENT_COUNT>
1

> <PUBCHEM_CACTVS_TAUTO_COUNT>
1

> <PUBCHEM_CONFORMER_ID>
0179B2F500000001

> <PUBCHEM_MMFF94_ENERGY>
27.5925

> <PUBCHEM_FEATURE_SELFOVERLAP>
30.505

> <PUBCHEM_SHAPE_FINGERPRINT>
10062212 137 18342734156821030551
11458722 379 18410014320895659522
12011746 2 18272377434346232798
12403259 226 18126279973061523721
12500047 106 18126842922350573152
12592029 89 18336267860149921355
12788726 201 17917443007732058888
13140716 1 18339087081263053281
13402501 40 18129670699539465910
13544592 145 18341895195094560736
13583140 156 16127230381345925424
14251751 93 18271236209991121383
14866123 147 17553780464399203424
15099037 51 18411699885068882252
15196674 1 18411136973944259448
17804303 29 18411421734402451793
17859628 97 18334571304960475498
1813 80 17385715937385891308
19591789 44 18336543906156315075
20832881 197 18131071485272994568
20905425 154 18123471570765450854
21330990 113 18260828137969037749
21521239 73 18058430124192061191
23558518 356 18120370114735752967
23559900 14 18201717396928930488
3004659 81 18333736793573874494
38695281 34 17917148300187280383
5104073 3 18340487871523860049
532947 4 18199754643945167039
59755656 215 18336824170543247925
6138700 20 18340489941914568590
7364860 26 18271245998453385509
81228 2 17546711008712820833
9709674 26 18124594442641026954

> <PUBCHEM_SHAPE_MULTIPOLES>
367.53
8.9
3.1
1.02
4.09
1.29
0.19
-1
-0.25
-0.51
-0.09
0.58
0.16
0.35

> <PUBCHEM_SHAPE_SELFOVERLAP>
723.064

> <PUBCHEM_SHAPE_VOLUME>
218.4

> <PUBCHEM_COORDINATE_TYPE>
2
5
10

$$$$
