24832089
  -OEChem-11232109483D

 26 27  0     0  0  0  0  0  0999 V2000
   -2.4518    1.9005    1.1184 S   0  0  0  0  0  0  0  0  0  0  0  0
    0.8929    0.6745   -1.1468 S   0  0  0  0  0  0  0  0  0  0  0  0
   -0.4533    1.8625    1.5949 S   0  0  0  0  0  0  0  0  0  0  0  0
    0.5289    2.4268   -0.1159 S   0  0  0  0  0  0  0  0  0  0  0  0
   -3.2439   -1.5113   -0.7778 O   0  0  0  0  0  0  0  0  0  0  0  0
    4.0817   -1.0475    0.3982 O   0  0  0  0  0  0  0  0  0  0  0  0
   -3.1609   -0.1568   -0.7100 C   0  0  0  0  0  0  0  0  0  0  0  0
    2.7588   -1.0098    0.0908 C   0  0  0  0  0  0  0  0  0  0  0  0
   -2.7235    0.2388    0.5327 C   0  0  0  0  0  0  0  0  0  0  0  0
    2.4463    0.1635   -0.5557 C   0  0  0  0  0  0  0  0  0  0  0  0
   -2.5252   -0.9489    1.2763 C   0  0  0  0  0  0  0  0  0  0  0  0
    3.6550    0.8935   -0.6516 C   0  0  0  0  0  0  0  0  0  0  0  0
   -3.5425    0.5701   -1.9311 C   0  0  0  0  0  0  0  0  0  0  0  0
    1.9726   -2.1844    0.4997 C   0  0  0  0  0  0  0  0  0  0  0  0
   -2.8553   -1.9858    0.4349 C   0  0  0  0  0  0  0  0  0  0  0  0
    4.6199    0.1143   -0.0571 C   0  0  0  0  0  0  0  0  0  0  0  0
   -2.1860   -1.0482    2.2979 H   0  0  0  0  0  0  0  0  0  0  0  0
    3.8153    1.8652   -1.0978 H   0  0  0  0  0  0  0  0  0  0  0  0
   -2.7197    1.2053   -2.2737 H   0  0  0  0  0  0  0  0  0  0  0  0
   -3.7970   -0.1165   -2.7448 H   0  0  0  0  0  0  0  0  0  0  0  0
   -4.4129    1.2061   -1.7426 H   0  0  0  0  0  0  0  0  0  0  0  0
    1.5391   -2.6797   -0.3746 H   0  0  0  0  0  0  0  0  0  0  0  0
    2.5897   -2.9169    1.0298 H   0  0  0  0  0  0  0  0  0  0  0  0
    1.1568   -1.8879    1.1664 H   0  0  0  0  0  0  0  0  0  0  0  0
   -2.8667   -3.0606    0.5417 H   0  0  0  0  0  0  0  0  0  0  0  0
    5.6795    0.2366    0.1132 H   0  0  0  0  0  0  0  0  0  0  0  0
  1  3  1  0  0  0  0
  1  9  1  0  0  0  0
  2  4  1  0  0  0  0
  2 10  1  0  0  0  0
  3  4  1  0  0  0  0
  5  7  1  0  0  0  0
  5 15  1  0  0  0  0
  6  8  1  0  0  0  0
  6 16  1  0  0  0  0
  7  9  2  0  0  0  0
  7 13  1  0  0  0  0
  8 10  2  0  0  0  0
  8 14  1  0  0  0  0
  9 11  1  0  0  0  0
 10 12  1  0  0  0  0
 11 15  2  0  0  0  0
 11 17  1  0  0  0  0
 12 16  2  0  0  0  0
 12 18  1  0  0  0  0
 13 19  1  0  0  0  0
 13 20  1  0  0  0  0
 13 21  1  0  0  0  0
 14 22  1  0  0  0  0
 14 23  1  0  0  0  0
 14 24  1  0  0  0  0
 15 25  1  0  0  0  0
 16 26  1  0  0  0  0
M  END
> <PUBCHEM_COMPOUND_CID>
24832089

> <PUBCHEM_CONFORMER_RMSD>
1

> <PUBCHEM_CONFORMER_DIVERSEORDER>
2
79
112
4
68
22
10
47
16
117
99
8
65
57
92
9
76
60
75
34
113
6
115
18
109
66
56
40
104
85
90
84
101
69
48
33
27
80
70
111
23
58
12
49
44
62
14
93
95
87
97
13
43
29
83
63
46
55
86
31
103
107
114
7
110
26
64
73
11
45
53
81
38
106
116
50
100
36
82
94
96
17
15
39
19
78
61
89
32
1
35
74
54
91
108
88
25
37
52
72
24
71
77
5
20
42
59
21
67
30
102
41
28
3
51
98
105

> <PUBCHEM_MMFF94_PARTIAL_CHARGES>
18
1 -0.05
10 0.05
11 -0.15
12 -0.15
13 0.18
14 0.18
15 -0.01
16 -0.01
17 0.15
18 0.15
2 -0.05
25 0.15
26 0.15
5 -0.28
6 -0.28
7 -0.04
8 -0.04
9 0.05

> <PUBCHEM_EFFECTIVE_ROTOR_COUNT>
5

> <PUBCHEM_PHARMACOPHORE_FEATURES>
5
1 5 acceptor
1 6 acceptor
4 1 2 3 4 hydrophobe
5 5 7 9 11 15 rings
5 6 8 10 12 16 rings

> <PUBCHEM_HEAVY_ATOM_COUNT>
16

> <PUBCHEM_ATOM_DEF_STEREO_COUNT>
0

> <PUBCHEM_ATOM_UDEF_STEREO_COUNT>
0

> <PUBCHEM_BOND_DEF_STEREO_COUNT>
0

> <PUBCHEM_BOND_UDEF_STEREO_COUNT>
0

> <PUBCHEM_ISOTOPIC_ATOM_COUNT>
0

> <PUBCHEM_COMPONENT_COUNT>
1

> <PUBCHEM_CACTVS_TAUTO_COUNT>
1

> <PUBCHEM_CONFORMER_ID>
017AE85900000002

> <PUBCHEM_MMFF94_ENERGY>
-19.471

> <PUBCHEM_FEATURE_SELFOVERLAP>
25.371

> <PUBCHEM_SHAPE_FINGERPRINT>
11552529 35 13686002233208646764
12553582 1 18338527360613406872
12670545 47 15984814887748968440
14081887 123 18130782305304264312
14251745 187 17603856836401199261
14251751 93 8718827569886462704
14251757 17 17460857515441699783
14787075 74 17915462912034279304
17834072 14 18113613508598771680
19433438 38 17821727264557913799
23402539 116 18272374157439166266
23728640 28 18058459724911667905
27216 239 10087650303595251549
85463 6 17847057783342412181
9882013 296 16056874754045992228

> <PUBCHEM_SHAPE_MULTIPOLES>
332.93
8.34
2.48
1.49
4.71
0.17
-0.22
-2.37
-1.21
-0.65
0.77
-1.35
0.4
-0.62

> <PUBCHEM_SHAPE_SELFOVERLAP>
643.549

> <PUBCHEM_SHAPE_VOLUME>
208.7

> <PUBCHEM_COORDINATE_TYPE>
2
5
10

$$$$
