24976875
  -OEChem-11232109493D

 38 37  0     0  0  0  0  0  0999 V2000
   -6.0590    0.0675   -1.7422 O   0  0  0  0  0  0  0  0  0  0  0  0
   -1.1855    0.1186    1.0613 C   0  0  0  0  0  0  0  0  0  0  0  0
    0.1014    0.5043    0.3683 C   0  0  0  0  0  0  0  0  0  0  0  0
   -2.3793    0.1181    0.1040 C   0  0  0  0  0  0  0  0  0  0  0  0
    2.4912    0.0170   -0.3835 C   0  0  0  0  0  0  0  0  0  0  0  0
    1.1709   -0.3075    0.2590 C   0  0  0  0  0  0  0  0  0  0  0  0
    3.6316   -0.0007    0.6408 C   0  0  0  0  0  0  0  0  0  0  0  0
    0.1434    1.9038   -0.1838 C   0  0  0  0  0  0  0  0  0  0  0  0
   -3.6361   -0.3097    0.8106 C   0  0  0  0  0  0  0  0  0  0  0  0
    4.9781    0.2870    0.0095 C   0  0  0  0  0  0  0  0  0  0  0  0
   -4.8729   -0.3558    0.2870 C   0  0  0  0  0  0  0  0  0  0  0  0
    5.8050   -0.7973   -0.5043 C   0  0  0  0  0  0  0  0  0  0  0  0
   -6.1349   -0.7565    0.9832 C   0  0  0  0  0  0  0  0  0  0  0  0
    5.4279    1.5525   -0.0583 C   0  0  0  0  0  0  0  0  0  0  0  0
   -4.9934    0.0619   -1.1367 C   0  0  0  0  0  0  0  0  0  0  0  0
    5.5115   -2.1033   -0.5149 C   0  0  0  0  0  0  0  0  0  0  0  0
   -1.3640    0.8140    1.8919 H   0  0  0  0  0  0  0  0  0  0  0  0
   -1.0792   -0.8762    1.5143 H   0  0  0  0  0  0  0  0  0  0  0  0
   -2.1711   -0.5697   -0.7248 H   0  0  0  0  0  0  0  0  0  0  0  0
   -2.5137    1.1282   -0.3003 H   0  0  0  0  0  0  0  0  0  0  0  0
    2.6769   -0.7481   -1.1486 H   0  0  0  0  0  0  0  0  0  0  0  0
    2.4799    0.9690   -0.9219 H   0  0  0  0  0  0  0  0  0  0  0  0
    1.0963   -1.3095    0.6788 H   0  0  0  0  0  0  0  0  0  0  0  0
    3.4239    0.7613    1.4062 H   0  0  0  0  0  0  0  0  0  0  0  0
    3.6520   -0.9474    1.1943 H   0  0  0  0  0  0  0  0  0  0  0  0
   -0.1967    1.9148   -1.2241 H   0  0  0  0  0  0  0  0  0  0  0  0
   -0.5144    2.5636    0.3938 H   0  0  0  0  0  0  0  0  0  0  0  0
    1.1353    2.3599   -0.1251 H   0  0  0  0  0  0  0  0  0  0  0  0
   -3.5305   -0.6089    1.8524 H   0  0  0  0  0  0  0  0  0  0  0  0
   -6.8554    0.0677    0.9789 H   0  0  0  0  0  0  0  0  0  0  0  0
   -5.9460   -1.0295    2.0266 H   0  0  0  0  0  0  0  0  0  0  0  0
   -6.5884   -1.6214    0.4884 H   0  0  0  0  0  0  0  0  0  0  0  0
    6.7683   -0.5095   -0.9235 H   0  0  0  0  0  0  0  0  0  0  0  0
    4.8363    2.3796    0.3218 H   0  0  0  0  0  0  0  0  0  0  0  0
    6.3906    1.8001   -0.4947 H   0  0  0  0  0  0  0  0  0  0  0  0
   -4.0760    0.3674   -1.6591 H   0  0  0  0  0  0  0  0  0  0  0  0
    6.2208   -2.8130   -0.9289 H   0  0  0  0  0  0  0  0  0  0  0  0
    4.5810   -2.5045   -0.1315 H   0  0  0  0  0  0  0  0  0  0  0  0
  1 15  2  0  0  0  0
  2  3  1  0  0  0  0
  2  4  1  0  0  0  0
  2 17  1  0  0  0  0
  2 18  1  0  0  0  0
  3  6  2  0  0  0  0
  3  8  1  0  0  0  0
  4  9  1  0  0  0  0
  4 19  1  0  0  0  0
  4 20  1  0  0  0  0
  5  6  1  0  0  0  0
  5  7  1  0  0  0  0
  5 21  1  0  0  0  0
  5 22  1  0  0  0  0
  6 23  1  0  0  0  0
  7 10  1  0  0  0  0
  7 24  1  0  0  0  0
  7 25  1  0  0  0  0
  8 26  1  0  0  0  0
  8 27  1  0  0  0  0
  8 28  1  0  0  0  0
  9 11  2  0  0  0  0
  9 29  1  0  0  0  0
 10 12  1  0  0  0  0
 10 14  2  0  0  0  0
 11 13  1  0  0  0  0
 11 15  1  0  0  0  0
 12 16  2  0  0  0  0
 12 33  1  0  0  0  0
 13 30  1  0  0  0  0
 13 31  1  0  0  0  0
 13 32  1  0  0  0  0
 14 34  1  0  0  0  0
 14 35  1  0  0  0  0
 15 36  1  0  0  0  0
 16 37  1  0  0  0  0
 16 38  1  0  0  0  0
M  END
> <PUBCHEM_COMPOUND_CID>
24976875

> <PUBCHEM_CONFORMER_RMSD>
1

> <PUBCHEM_CONFORMER_DIVERSEORDER>
3
157
169
76
162
98
118
166
99
6
134
141
86
102
161
148
163
64
147
153
123
37
100
139
52
43
120
66
31
144
21
75
2
151
170
140
171
55
137
51
159
103
56
74
121
60
92
154
115
9
125
107
160
114
117
172
129
136
28
63
173
127
95
101
13
53
89
25
156
20
104
77
80
27
54
65
83
26
168
62
81
68
133
42
12
119
152
48
122
22
150
73
57
16
79
1
142
87
149
126
32
94
82
14
59
50
18
71
88
109
38
67
97
143
10
138
96
90
165
30
164
44
91
36
113
105
8
58
78
34
46
19
155
124
17
112
132
4
85
158
39
69
49
7
146
130
41
128
24
145
116
61
70
111
84
47
106
45
131
108
33
135
11
40
23
15
167
5
35
93
72
110
29

> <PUBCHEM_MMFF94_PARTIAL_CHARGES>
24
1 -0.57
10 -0.14
11 -0.12
12 -0.15
13 0.14
14 -0.3
15 0.5
16 -0.3
2 0.14
23 0.15
29 0.15
3 -0.28
33 0.15
34 0.15
35 0.15
36 0.06
37 0.15
38 0.15
4 0.14
5 0.14
6 -0.29
7 0.14
8 0.14
9 -0.29

> <PUBCHEM_EFFECTIVE_ROTOR_COUNT>
8

> <PUBCHEM_PHARMACOPHORE_FEATURES>
7
1 1 acceptor
1 13 hydrophobe
1 14 hydrophobe
1 16 hydrophobe
1 8 hydrophobe
4 2 3 4 9 hydrophobe
5 5 6 7 10 12 hydrophobe

> <PUBCHEM_HEAVY_ATOM_COUNT>
16

> <PUBCHEM_ATOM_DEF_STEREO_COUNT>
0

> <PUBCHEM_ATOM_UDEF_STEREO_COUNT>
0

> <PUBCHEM_BOND_DEF_STEREO_COUNT>
2

> <PUBCHEM_BOND_UDEF_STEREO_COUNT>
0

> <PUBCHEM_ISOTOPIC_ATOM_COUNT>
0

> <PUBCHEM_COMPONENT_COUNT>
1

> <PUBCHEM_CACTVS_TAUTO_COUNT>
1

> <PUBCHEM_CONFORMER_ID>
017D1DEB00000003

> <PUBCHEM_MMFF94_ENERGY>
21.7156

> <PUBCHEM_FEATURE_SELFOVERLAP>
35.556

> <PUBCHEM_SHAPE_FINGERPRINT>
10912923 1 17275112721289129906
117890 112 14418135119285770806
11858739 19 18408324363376970862
12091667 2 17846501431001745401
12236239 1 17775287170613585905
12596602 18 13758353358407637182
12670543 26 17967811609144616303
13533116 47 18060703866999221586
13862211 1 17346877844938780366
1420 363 18410017636562932907
14251731 8 17675924305017132043
14251752 14 17603860079280725771
14251764 18 17489586767066068970
15048467 5 15140958452467795343
15183329 4 15647053759249822663
15716309 27 17561368378926240803
17834072 33 17060339638678131968
17834072 8 17676488341170056871
17834076 25 17418098727976463235
18222031 100 18271800224911731400
200 152 18272654541072385833
20281389 69 12468353570222951711
20621476 66 14779539038201459191
20645477 70 18341055121483407214
21637258 2 17417802924725251658
220451 1 17418380207068961847
23035841 295 16989127556598033783
23081809 10 17632300076909162457
23402539 116 16056880230556497881
23559900 14 18336545026963399104
29717793 49 18413109433664849412
314194 84 18131915970169105618
34797466 226 17603881026089416694
42788 4 16732701666222442585
465052 167 18130794460272675534
5283173 99 17968089764085792525
59755656 215 17967813808532434042
7062679 6 14779542349304954167

> <PUBCHEM_SHAPE_MULTIPOLES>
323.4
17.91
1.4
1.09
4.35
0.02
0.23
-4.8
3.34
-2.36
0.16
1.67
-0.06
0.83

> <PUBCHEM_SHAPE_SELFOVERLAP>
616.279

> <PUBCHEM_SHAPE_VOLUME>
198.2

> <PUBCHEM_COORDINATE_TYPE>
2
5
10

$$$$
