250096
  -OEChem-11232109173D

 28 28  0     0  0  0  0  0  0999 V2000
   -0.5446    0.2460   -0.0885 O   0  0  0  0  0  0  0  0  0  0  0  0
   -2.0961    1.9397   -0.2484 O   0  0  0  0  0  0  0  0  0  0  0  0
    1.8293    0.4921   -0.0043 C   0  0  0  0  0  0  0  0  0  0  0  0
    0.5146    1.2091   -0.0992 C   0  0  0  0  0  0  0  0  0  0  0  0
    2.3824    0.2308    1.2445 C   0  0  0  0  0  0  0  0  0  0  0  0
    2.4825    0.0949   -1.1658 C   0  0  0  0  0  0  0  0  0  0  0  0
   -2.7950   -0.3641   -0.1408 C   0  0  0  0  0  0  0  0  0  0  0  0
   -1.8047    0.7548   -0.1694 C   0  0  0  0  0  0  0  0  0  0  0  0
    3.6045   -0.4359    1.3328 C   0  0  0  0  0  0  0  0  0  0  0  0
    3.7045   -0.5719   -1.0772 C   0  0  0  0  0  0  0  0  0  0  0  0
    4.2654   -0.8372    0.1721 C   0  0  0  0  0  0  0  0  0  0  0  0
   -2.3994   -1.6803   -0.7416 C   0  0  0  0  0  0  0  0  0  0  0  0
   -3.9906   -0.0763    0.4059 C   0  0  0  0  0  0  0  0  0  0  0  0
   -5.1528   -1.0017    0.5798 C   0  0  0  0  0  0  0  0  0  0  0  0
    0.3967    1.8985    0.7463 H   0  0  0  0  0  0  0  0  0  0  0  0
    0.4698    1.7983   -1.0237 H   0  0  0  0  0  0  0  0  0  0  0  0
    1.8750    0.5369    2.1551 H   0  0  0  0  0  0  0  0  0  0  0  0
    2.0535    0.2943   -2.1438 H   0  0  0  0  0  0  0  0  0  0  0  0
    4.0410   -0.6431    2.3055 H   0  0  0  0  0  0  0  0  0  0  0  0
    4.2190   -0.8852   -1.9809 H   0  0  0  0  0  0  0  0  0  0  0  0
    5.2167   -1.3567    0.2409 H   0  0  0  0  0  0  0  0  0  0  0  0
   -3.2591   -2.3026   -1.0029 H   0  0  0  0  0  0  0  0  0  0  0  0
   -1.8381   -1.5236   -1.6695 H   0  0  0  0  0  0  0  0  0  0  0  0
   -1.7669   -2.2416   -0.0464 H   0  0  0  0  0  0  0  0  0  0  0  0
   -4.1695    0.9244    0.7968 H   0  0  0  0  0  0  0  0  0  0  0  0
   -5.4851   -0.9776    1.6227 H   0  0  0  0  0  0  0  0  0  0  0  0
   -4.9233   -2.0411    0.3359 H   0  0  0  0  0  0  0  0  0  0  0  0
   -5.9857   -0.6743   -0.0500 H   0  0  0  0  0  0  0  0  0  0  0  0
  1  4  1  0  0  0  0
  1  8  1  0  0  0  0
  2  8  2  0  0  0  0
  3  4  1  0  0  0  0
  3  5  2  0  0  0  0
  3  6  1  0  0  0  0
  4 15  1  0  0  0  0
  4 16  1  0  0  0  0
  5  9  1  0  0  0  0
  5 17  1  0  0  0  0
  6 10  2  0  0  0  0
  6 18  1  0  0  0  0
  7  8  1  0  0  0  0
  7 12  1  0  0  0  0
  7 13  2  0  0  0  0
  9 11  2  0  0  0  0
  9 19  1  0  0  0  0
 10 11  1  0  0  0  0
 10 20  1  0  0  0  0
 11 21  1  0  0  0  0
 12 22  1  0  0  0  0
 12 23  1  0  0  0  0
 12 24  1  0  0  0  0
 13 14  1  0  0  0  0
 13 25  1  0  0  0  0
 14 26  1  0  0  0  0
 14 27  1  0  0  0  0
 14 28  1  0  0  0  0
M  END
> <PUBCHEM_COMPOUND_CID>
250096

> <PUBCHEM_CONFORMER_RMSD>
0.6

> <PUBCHEM_CONFORMER_DIVERSEORDER>
1
46
28
34
6
32
38
7
23
4
41
24
18
21
33
3
37
22
20
45
5
16
2
43
17
31
44
15
10
27
39
9
8
19
40
35
26
14
13
25
30
29
11
42
36
12

> <PUBCHEM_MMFF94_PARTIAL_CHARGES>
20
1 -0.43
10 -0.15
11 -0.15
12 0.14
13 -0.29
14 0.14
17 0.15
18 0.15
19 0.15
2 -0.57
20 0.15
21 0.15
25 0.15
3 -0.14
4 0.42
5 -0.15
6 -0.15
7 -0.12
8 0.71
9 -0.15

> <PUBCHEM_EFFECTIVE_ROTOR_COUNT>
4

> <PUBCHEM_PHARMACOPHORE_FEATURES>
4
1 12 hydrophobe
1 14 hydrophobe
1 2 acceptor
6 3 5 6 9 10 11 rings

> <PUBCHEM_HEAVY_ATOM_COUNT>
14

> <PUBCHEM_ATOM_DEF_STEREO_COUNT>
0

> <PUBCHEM_ATOM_UDEF_STEREO_COUNT>
0

> <PUBCHEM_BOND_DEF_STEREO_COUNT>
1

> <PUBCHEM_BOND_UDEF_STEREO_COUNT>
0

> <PUBCHEM_ISOTOPIC_ATOM_COUNT>
0

> <PUBCHEM_COMPONENT_COUNT>
1

> <PUBCHEM_CACTVS_TAUTO_COUNT>
1

> <PUBCHEM_CONFORMER_ID>
0003D0F000000001

> <PUBCHEM_MMFF94_ENERGY>
28.5971

> <PUBCHEM_FEATURE_SELFOVERLAP>
20.298

> <PUBCHEM_SHAPE_FINGERPRINT>
10354089 29 14692571031071616426
11543360 7 15068624919898070891
12251169 10 15554446301478741012
12346177 29 18130494306419735503
12616999 72 16008749125924465578
13296908 3 18131062710812973036
13675066 3 17489874834384919521
14123260 362 10303814319222069103
14252887 29 17918278636436623570
14445660 50 14189566451296075468
14576447 43 17312822658944836266
15239191 94 18260264161476182411
15477762 27 16732700528657482818
15653759 3 17917709084965481080
15885798 251 18343587352106101017
16752209 62 18189317031770581997
18186145 218 12973889152687956548
18915474 69 17603590758961502426
19141452 34 17917711335971664047
19422 9 17676770872851264032
200 152 16515402962837833733
20279233 1 17846210034096842388
20281475 54 18200874097042223013
20361792 2 17967807266980328612
20645477 70 14996274787242818234
212847 35 10231762171366183446
22169311 14 16988843903635021707
22646028 28 17967812738715786034
22959321 94 18410289228930723523
23402539 116 17168140084314465116
23402655 69 14923943440289408798
26918003 58 16845572011023811738
3060560 45 14707209929079024626
328317 168 9151174229805113187
42 15 17489874834126482595
465052 167 18188503479208214395
58051976 100 17895750695339873925
5924683 9 16414905470378035911

> <PUBCHEM_SHAPE_MULTIPOLES>
276.37
9.76
1.36
1.13
4.46
0.13
-0.12
-3.71
-1.64
0.88
0.2
-1.02
-0.14
0.13

> <PUBCHEM_SHAPE_SELFOVERLAP>
562.148

> <PUBCHEM_SHAPE_VOLUME>
160.7

> <PUBCHEM_COORDINATE_TYPE>
2
5
10

$$$$
