2507689
  -OEChem-11232109093D

 23 24  0     0  0  0  0  0  0999 V2000
   -0.4341    1.1953    0.0007 O   0  0  0  0  0  0  0  0  0  0  0  0
   -3.4877   -0.6378   -0.0018 O   0  0  0  0  0  0  0  0  0  0  0  0
    0.8931   -0.6329    0.0003 C   0  0  0  0  0  0  0  0  0  0  0  0
   -0.4627   -1.0547    0.0007 C   0  0  0  0  0  0  0  0  0  0  0  0
    0.8565    0.7578    0.0005 C   0  0  0  0  0  0  0  0  0  0  0  0
   -1.2251    0.0905    0.0007 C   0  0  0  0  0  0  0  0  0  0  0  0
    2.1455   -1.2717    0.0002 C   0  0  0  0  0  0  0  0  0  0  0  0
   -0.9559   -2.4458    0.0004 C   0  0  0  0  0  0  0  0  0  0  0  0
    1.9895    1.5694   -0.0001 C   0  0  0  0  0  0  0  0  0  0  0  0
   -2.6352    0.2883   -0.0001 C   0  0  0  0  0  0  0  0  0  0  0  0
    3.3033   -0.4817   -0.0007 C   0  0  0  0  0  0  0  0  0  0  0  0
    3.2239    0.9132   -0.0009 C   0  0  0  0  0  0  0  0  0  0  0  0
   -3.2110    1.7101    0.0001 C   0  0  0  0  0  0  0  0  0  0  0  0
    2.2275   -2.3543    0.0003 H   0  0  0  0  0  0  0  0  0  0  0  0
   -1.5684   -2.6379    0.8873 H   0  0  0  0  0  0  0  0  0  0  0  0
   -1.5656   -2.6384   -0.8885 H   0  0  0  0  0  0  0  0  0  0  0  0
   -0.1360   -3.1706    0.0019 H   0  0  0  0  0  0  0  0  0  0  0  0
    1.9199    2.6506   -0.0002 H   0  0  0  0  0  0  0  0  0  0  0  0
    4.2779   -0.9631   -0.0011 H   0  0  0  0  0  0  0  0  0  0  0  0
    4.1392    1.5002   -0.0016 H   0  0  0  0  0  0  0  0  0  0  0  0
   -2.8777    2.2396    0.8966 H   0  0  0  0  0  0  0  0  0  0  0  0
   -4.3041    1.6686    0.0012 H   0  0  0  0  0  0  0  0  0  0  0  0
   -2.8793    2.2391   -0.8973 H   0  0  0  0  0  0  0  0  0  0  0  0
  1  5  1  0  0  0  0
  1  6  1  0  0  0  0
  2 10  2  0  0  0  0
  3  4  1  0  0  0  0
  3  5  1  0  0  0  0
  3  7  2  0  0  0  0
  4  6  2  0  0  0  0
  4  8  1  0  0  0  0
  5  9  2  0  0  0  0
  6 10  1  0  0  0  0
  7 11  1  0  0  0  0
  7 14  1  0  0  0  0
  8 15  1  0  0  0  0
  8 16  1  0  0  0  0
  8 17  1  0  0  0  0
  9 12  1  0  0  0  0
  9 18  1  0  0  0  0
 10 13  1  0  0  0  0
 11 12  2  0  0  0  0
 11 19  1  0  0  0  0
 12 20  1  0  0  0  0
 13 21  1  0  0  0  0
 13 22  1  0  0  0  0
 13 23  1  0  0  0  0
M  END
> <PUBCHEM_COMPOUND_CID>
2507689

> <PUBCHEM_CONFORMER_RMSD>
0.4

> <PUBCHEM_CONFORMER_DIVERSEORDER>
1
3
2
4

> <PUBCHEM_MMFF94_PARTIAL_CHARGES>
16
1 -0.28
10 0.59
11 -0.15
12 -0.15
13 0.06
14 0.15
18 0.15
19 0.15
2 -0.57
20 0.15
4 -0.18
5 0.14
6 0.05
7 -0.15
8 0.18
9 -0.15

> <PUBCHEM_EFFECTIVE_ROTOR_COUNT>
1

> <PUBCHEM_PHARMACOPHORE_FEATURES>
4
1 1 acceptor
1 2 acceptor
5 1 3 4 5 6 rings
6 3 5 7 9 11 12 rings

> <PUBCHEM_HEAVY_ATOM_COUNT>
13

> <PUBCHEM_ATOM_DEF_STEREO_COUNT>
0

> <PUBCHEM_ATOM_UDEF_STEREO_COUNT>
0

> <PUBCHEM_BOND_DEF_STEREO_COUNT>
0

> <PUBCHEM_BOND_UDEF_STEREO_COUNT>
0

> <PUBCHEM_ISOTOPIC_ATOM_COUNT>
0

> <PUBCHEM_COMPONENT_COUNT>
1

> <PUBCHEM_CACTVS_TAUTO_COUNT>
2

> <PUBCHEM_CONFORMER_ID>
002643A900000001

> <PUBCHEM_MMFF94_ENERGY>
21.7967

> <PUBCHEM_FEATURE_SELFOVERLAP>
20.399

> <PUBCHEM_SHAPE_FINGERPRINT>
10608611 8 18411697724769267976
10967382 1 18410856516727072358
10980938 120 18408604751563243466
11471102 20 18338511941569817125
12032990 46 18410300206756355787
12491281 212 18411147925957987673
12932764 1 17417804075961096805
13380535 21 18337965600513366158
13380535 76 18411979191309044326
14144814 61 18410292510206493096
14325111 11 18410855451665035617
14897335 6 18339637940545568588
14911166 2 18340212903733572222
14993402 34 18409730646911381278
15279308 100 18410863148415053510
15442244 35 18410571743458324938
15775835 57 18334580109442523533
16945 1 18338517559444873988
17844478 74 18040158413664523293
18186145 218 18342462486885339469
193761 8 17834395996330855301
20510252 161 18272373079012362113
20645477 70 18339637833361660887
20871998 184 18128262383419758047
21501502 16 18265892639071942630
2334 1 18410855425768689760
23402539 116 18271795822232532436
23402655 69 18342167852593109837
23463225 33 18335981969846525106
23552423 10 18116995692254340758
23559900 14 18343306968815695188
25 1 18264487274269974749
2748010 2 18337392630174312165
528886 8 18411131403202845600
53812653 166 18340201908258721600
63268167 104 18342178830028254425
69090 78 18342172310526582599
7364860 26 18052536569304039879

> <PUBCHEM_SHAPE_MULTIPOLES>
255.8
5.43
2.01
0.6
0.94
0.54
0
-1.4
0
0.43
0
-0.03
0
0

> <PUBCHEM_SHAPE_SELFOVERLAP>
557.312

> <PUBCHEM_SHAPE_VOLUME>
142.8

> <PUBCHEM_COORDINATE_TYPE>
2
5
10

$$$$
