25113547
  -OEChem-11232108553D

 45 44  0     1  0  0  0  0  0999 V2000
    1.5783   -0.3416   -0.5521 O   0  0  0  0  0  0  0  0  0  0  0  0
    2.5240    0.1351    1.4969 O   0  0  0  0  0  0  0  0  0  0  0  0
   -1.6283   -2.3845   -0.4481 C   0  0  1  0  0  0  0  0  0  0  0  0
   -2.5726   -1.5624    0.4511 C   0  0  0  0  0  0  0  0  0  0  0  0
   -0.4138   -1.5984   -0.9765 C   0  0  0  0  0  0  0  0  0  0  0  0
   -3.0804   -0.2759   -0.2084 C   0  0  0  0  0  0  0  0  0  0  0  0
   -1.1906   -3.6553    0.2880 C   0  0  0  0  0  0  0  0  0  0  0  0
    0.5310   -1.0586    0.0912 C   0  0  0  0  0  0  0  0  0  0  0  0
   -4.0260    0.4869    0.7260 C   0  0  0  0  0  0  0  0  0  0  0  0
    4.9108    1.0699    0.1215 C   0  0  0  0  0  0  0  0  0  0  0  0
   -4.5185    1.7811    0.1232 C   0  0  0  0  0  0  0  0  0  0  0  0
    3.5347    0.9667   -0.5543 C   0  0  0  0  0  0  0  0  0  0  0  0
    2.5190    0.2112    0.2760 C   0  0  0  0  0  0  0  0  0  0  0  0
    5.5090   -0.3139    0.3872 C   0  0  0  0  0  0  0  0  0  0  0  0
    5.8644    1.8860   -0.7533 C   0  0  0  0  0  0  0  0  0  0  0  0
   -5.2942    1.6871   -1.1593 C   0  0  0  0  0  0  0  0  0  0  0  0
   -4.2470    2.9665    0.6908 C   0  0  0  0  0  0  0  0  0  0  0  0
   -2.2048   -2.7037   -1.3272 H   0  0  0  0  0  0  0  0  0  0  0  0
   -2.0681   -1.3137    1.3930 H   0  0  0  0  0  0  0  0  0  0  0  0
   -3.4350   -2.1861    0.7205 H   0  0  0  0  0  0  0  0  0  0  0  0
    0.1635   -2.2480   -1.6490 H   0  0  0  0  0  0  0  0  0  0  0  0
   -0.7440   -0.7743   -1.6205 H   0  0  0  0  0  0  0  0  0  0  0  0
   -3.5898   -0.5364   -1.1432 H   0  0  0  0  0  0  0  0  0  0  0  0
   -2.2406    0.3798   -0.4634 H   0  0  0  0  0  0  0  0  0  0  0  0
   -0.5135   -4.2525   -0.3316 H   0  0  0  0  0  0  0  0  0  0  0  0
   -0.6820   -3.4262    1.2299 H   0  0  0  0  0  0  0  0  0  0  0  0
   -2.0595   -4.2788    0.5252 H   0  0  0  0  0  0  0  0  0  0  0  0
   -0.0005   -0.3801    0.7668 H   0  0  0  0  0  0  0  0  0  0  0  0
    0.9658   -1.8797    0.6709 H   0  0  0  0  0  0  0  0  0  0  0  0
   -4.8941   -0.1402    0.9651 H   0  0  0  0  0  0  0  0  0  0  0  0
   -3.5139    0.6788    1.6776 H   0  0  0  0  0  0  0  0  0  0  0  0
    4.8004    1.5847    1.0843 H   0  0  0  0  0  0  0  0  0  0  0  0
    3.6452    0.4571   -1.5198 H   0  0  0  0  0  0  0  0  0  0  0  0
    3.1261    1.9660   -0.7430 H   0  0  0  0  0  0  0  0  0  0  0  0
    5.6051   -0.8887   -0.5404 H   0  0  0  0  0  0  0  0  0  0  0  0
    6.5069   -0.2233    0.8302 H   0  0  0  0  0  0  0  0  0  0  0  0
    4.8983   -0.8959    1.0836 H   0  0  0  0  0  0  0  0  0  0  0  0
    6.0212    1.4079   -1.7262 H   0  0  0  0  0  0  0  0  0  0  0  0
    5.4653    2.8906   -0.9293 H   0  0  0  0  0  0  0  0  0  0  0  0
    6.8402    1.9952   -0.2681 H   0  0  0  0  0  0  0  0  0  0  0  0
   -4.6536    1.3532   -1.9809 H   0  0  0  0  0  0  0  0  0  0  0  0
   -6.1237    0.9809   -1.0508 H   0  0  0  0  0  0  0  0  0  0  0  0
   -5.7230    2.6528   -1.4485 H   0  0  0  0  0  0  0  0  0  0  0  0
   -3.6748    3.0355    1.6100 H   0  0  0  0  0  0  0  0  0  0  0  0
   -4.5897    3.8961    0.2486 H   0  0  0  0  0  0  0  0  0  0  0  0
  1  8  1  0  0  0  0
  1 13  1  0  0  0  0
  2 13  2  0  0  0  0
  3  4  1  0  0  0  0
  3  5  1  0  0  0  0
  3  7  1  0  0  0  0
  3 18  1  0  0  0  0
  4  6  1  0  0  0  0
  4 19  1  0  0  0  0
  4 20  1  0  0  0  0
  5  8  1  0  0  0  0
  5 21  1  0  0  0  0
  5 22  1  0  0  0  0
  6  9  1  0  0  0  0
  6 23  1  0  0  0  0
  6 24  1  0  0  0  0
  7 25  1  0  0  0  0
  7 26  1  0  0  0  0
  7 27  1  0  0  0  0
  8 28  1  0  0  0  0
  8 29  1  0  0  0  0
  9 11  1  0  0  0  0
  9 30  1  0  0  0  0
  9 31  1  0  0  0  0
 10 12  1  0  0  0  0
 10 14  1  0  0  0  0
 10 15  1  0  0  0  0
 10 32  1  0  0  0  0
 11 16  1  0  0  0  0
 11 17  2  0  0  0  0
 12 13  1  0  0  0  0
 12 33  1  0  0  0  0
 12 34  1  0  0  0  0
 14 35  1  0  0  0  0
 14 36  1  0  0  0  0
 14 37  1  0  0  0  0
 15 38  1  0  0  0  0
 15 39  1  0  0  0  0
 15 40  1  0  0  0  0
 16 41  1  0  0  0  0
 16 42  1  0  0  0  0
 16 43  1  0  0  0  0
 17 44  1  0  0  0  0
 17 45  1  0  0  0  0
M  END
> <PUBCHEM_COMPOUND_CID>
25113547

> <PUBCHEM_CONFORMER_RMSD>
1.2

> <PUBCHEM_CONFORMER_DIVERSEORDER>
1
59
38
43
9
3
54
19
52
10
40
37
42
18
56
24
55
47
29
4
12
27
31
28
34
8
35
33
5
48
7
13
51
14
44
41
17
22
6
26
39
50
2
46
53
45
36
20
58
30
23
11
16
49
15
57
32
25
21

> <PUBCHEM_MMFF94_PARTIAL_CHARGES>
11
1 -0.43
11 -0.28
12 0.06
13 0.66
16 0.14
17 -0.3
2 -0.57
44 0.15
45 0.15
8 0.28
9 0.14

> <PUBCHEM_EFFECTIVE_ROTOR_COUNT>
10

> <PUBCHEM_PHARMACOPHORE_FEATURES>
5
1 2 acceptor
1 7 hydrophobe
3 10 14 15 hydrophobe
3 3 4 5 hydrophobe
3 6 9 11 hydrophobe

> <PUBCHEM_HEAVY_ATOM_COUNT>
17

> <PUBCHEM_ATOM_DEF_STEREO_COUNT>
1

> <PUBCHEM_ATOM_UDEF_STEREO_COUNT>
0

> <PUBCHEM_BOND_DEF_STEREO_COUNT>
0

> <PUBCHEM_BOND_UDEF_STEREO_COUNT>
0

> <PUBCHEM_ISOTOPIC_ATOM_COUNT>
0

> <PUBCHEM_COMPONENT_COUNT>
1

> <PUBCHEM_CACTVS_TAUTO_COUNT>
1

> <PUBCHEM_CONFORMER_ID>
017F33CB00000001

> <PUBCHEM_MMFF94_ENERGY>
16.7425

> <PUBCHEM_FEATURE_SELFOVERLAP>
25.61

> <PUBCHEM_SHAPE_FINGERPRINT>
12107183 9 18263073332782697250
12500047 106 18342737455087089770
12596602 18 17530965795738956433
13073987 5 18190176966118004290
13103583 49 12324534086788262573
14123255 352 18409729543384555797
14251732 14 7925631176490499490
14251757 5 18342462590154764240
14251764 38 17611452040047596405
14251764 75 18269847415168174689
14508225 48 17696743734100079423
16079462 125 17346030191058464016
16120349 189 18187921743020342325
17834072 32 18411421704612019753
17844677 252 18193002745250071116
20281389 69 18410293644500099280
20374829 77 8862940572372201237
20621476 66 18410017650112700260
20621476 91 7853285376866865124
20645477 56 18201449132928594307
20645477 70 16557928783219880982
21401589 2 18336559231163824817
21426921 1 18195529418038085727
23590187 32 18411983533784399873
270888 7 18339361860349111657
2838139 119 18131061606790262633
351380 3 10087636005428168429
5104073 3 18041831935398269272
56616090 46 18411143506779960278
59682541 52 16773238362157726668
6327066 14 18335697218200496021
7062679 6 18336552698128501812
77188 2 17257093096048041671
7808743 9 18411139151545653505
7970288 3 9150877370224880529
9981440 41 18336271154764572251

> <PUBCHEM_SHAPE_MULTIPOLES>
338.11
13.83
3.42
1.02
10.52
1.61
0
-13.01
0.7
-4.05
-0.04
-0.18
-0.17
-0.56

> <PUBCHEM_SHAPE_SELFOVERLAP>
630.4

> <PUBCHEM_SHAPE_VOLUME>
212.4

> <PUBCHEM_COORDINATE_TYPE>
2
5
10

$$$$
