251530
  -OEChem-11232109453D

 24 23  0     0  0  0  0  0  0999 V2000
    0.3933    0.1506   -0.0611 O   0  0  0  0  0  0  0  0  0  0  0  0
   -0.9782   -1.6279    0.4673 O   0  0  0  0  0  0  0  0  0  0  0  0
   -1.9169    0.5218   -0.1756 C   0  0  0  0  0  0  0  0  0  0  0  0
   -3.3007   -0.1037   -0.0182 C   0  0  0  0  0  0  0  0  0  0  0  0
   -4.4032    0.9074   -0.2874 C   0  0  0  0  0  0  0  0  0  0  0  0
   -0.8120   -0.4663    0.1213 C   0  0  0  0  0  0  0  0  0  0  0  0
    1.5451   -0.6633    0.1829 C   0  0  0  0  0  0  0  0  0  0  0  0
    2.7904    0.1427   -0.0558 C   0  0  0  0  0  0  0  0  0  0  0  0
    2.9883    1.3556    0.8069 C   0  0  0  0  0  0  0  0  0  0  0  0
    3.6939   -0.2168   -0.9802 C   0  0  0  0  0  0  0  0  0  0  0  0
   -1.8114    1.3668    0.5141 H   0  0  0  0  0  0  0  0  0  0  0  0
   -1.7891    0.8810   -1.2030 H   0  0  0  0  0  0  0  0  0  0  0  0
   -3.4084   -0.9508   -0.7061 H   0  0  0  0  0  0  0  0  0  0  0  0
   -3.4180   -0.5033    0.9963 H   0  0  0  0  0  0  0  0  0  0  0  0
   -5.3849    0.4380   -0.1702 H   0  0  0  0  0  0  0  0  0  0  0  0
   -4.3433    1.7485    0.4105 H   0  0  0  0  0  0  0  0  0  0  0  0
   -4.3342    1.3006   -1.3068 H   0  0  0  0  0  0  0  0  0  0  0  0
    1.5083   -1.5399   -0.4753 H   0  0  0  0  0  0  0  0  0  0  0  0
    1.5321   -1.0101    1.2233 H   0  0  0  0  0  0  0  0  0  0  0  0
    2.9831    1.0733    1.8647 H   0  0  0  0  0  0  0  0  0  0  0  0
    2.1881    2.0829    0.6369 H   0  0  0  0  0  0  0  0  0  0  0  0
    3.9407    1.8561    0.6018 H   0  0  0  0  0  0  0  0  0  0  0  0
    3.5522   -1.0987   -1.5961 H   0  0  0  0  0  0  0  0  0  0  0  0
    4.5962    0.3630   -1.1437 H   0  0  0  0  0  0  0  0  0  0  0  0
  1  6  1  0  0  0  0
  1  7  1  0  0  0  0
  2  6  2  0  0  0  0
  3  4  1  0  0  0  0
  3  6  1  0  0  0  0
  3 11  1  0  0  0  0
  3 12  1  0  0  0  0
  4  5  1  0  0  0  0
  4 13  1  0  0  0  0
  4 14  1  0  0  0  0
  5 15  1  0  0  0  0
  5 16  1  0  0  0  0
  5 17  1  0  0  0  0
  7  8  1  0  0  0  0
  7 18  1  0  0  0  0
  7 19  1  0  0  0  0
  8  9  1  0  0  0  0
  8 10  2  0  0  0  0
  9 20  1  0  0  0  0
  9 21  1  0  0  0  0
  9 22  1  0  0  0  0
 10 23  1  0  0  0  0
 10 24  1  0  0  0  0
M  END
> <PUBCHEM_COMPOUND_CID>
251530

> <PUBCHEM_CONFORMER_RMSD>
0.6

> <PUBCHEM_CONFORMER_DIVERSEORDER>
1
107
114
62
70
73
18
72
14
78
119
86
16
104
81
19
44
17
103
36
66
37
112
111
35
51
110
63
15
92
2
4
57
99
90
61
88
55
102
97
34
116
60
24
83
84
108
94
7
98
49
96
53
74
105
82
100
31
65
46
43
79
32
89
29
6
5
118
11
109
75
80
117
76
27
59
115
93
91
13
20
39
67
69
106
101
41
77
8
45
54
9
33
95
42
85
25
71
50
28
23
3
26
113
47
10
48
30
68
52
56
21
38
64
22
58
87
12
40

> <PUBCHEM_MMFF94_PARTIAL_CHARGES>
10
1 -0.43
10 -0.3
2 -0.57
23 0.15
24 0.15
3 0.06
6 0.66
7 0.42
8 -0.28
9 0.14

> <PUBCHEM_EFFECTIVE_ROTOR_COUNT>
5

> <PUBCHEM_PHARMACOPHORE_FEATURES>
2
1 2 acceptor
1 5 hydrophobe

> <PUBCHEM_HEAVY_ATOM_COUNT>
10

> <PUBCHEM_ATOM_DEF_STEREO_COUNT>
0

> <PUBCHEM_ATOM_UDEF_STEREO_COUNT>
0

> <PUBCHEM_BOND_DEF_STEREO_COUNT>
0

> <PUBCHEM_BOND_UDEF_STEREO_COUNT>
0

> <PUBCHEM_ISOTOPIC_ATOM_COUNT>
0

> <PUBCHEM_COMPONENT_COUNT>
1

> <PUBCHEM_CACTVS_TAUTO_COUNT>
1

> <PUBCHEM_CONFORMER_ID>
0003D68A00000001

> <PUBCHEM_MMFF94_ENERGY>
3.8486

> <PUBCHEM_FEATURE_SELFOVERLAP>
10.148

> <PUBCHEM_SHAPE_FINGERPRINT>
11062470 55 18273214196722444365
11543360 7 16916774232491955421
12932741 1 18271815674035591426
12932764 1 18261383451533767038
14252887 29 8574711325412091532
14325111 11 18408039598344431187
14390081 3 18411696608177673064
177051 138 9367348145299815073
18186145 218 18343581824261495353
190213 19 17060617798034924973
20645477 70 17418099797529029774
21119208 17 17132113520135247549
212847 35 18260546684604358692
22485316 2 11025798712780175425
23402539 116 18342729706796893260
23402655 69 18060700571973347957
93112 12 17846500352511338358

> <PUBCHEM_SHAPE_MULTIPOLES>
194.06
7.83
1.19
0.8
3.3
0
-0.05
-2.31
-1.35
-0.13
0.24
-0.46
-0.03
0.62

> <PUBCHEM_SHAPE_SELFOVERLAP>
357.915

> <PUBCHEM_SHAPE_VOLUME>
123.4

> <PUBCHEM_COORDINATE_TYPE>
2
5
10

$$$$
