254555
  -OEChem-11232108533D

 36 36  0     0  0  0  0  0  0999 V2000
    3.2908    0.4976   -0.2669 O   0  0  0  0  0  0  0  0  0  0  0  0
   -3.4257    0.3475   -0.2642 O   0  0  0  0  0  0  0  0  0  0  0  0
    2.3894   -0.9364    1.3040 O   0  0  0  0  0  0  0  0  0  0  0  0
   -2.3326   -0.1014    1.7207 O   0  0  0  0  0  0  0  0  0  0  0  0
    1.6100   -0.9698   -0.9762 C   0  0  0  0  0  0  0  0  0  0  0  0
   -1.2710   -0.5522   -0.3919 C   0  0  0  0  0  0  0  0  0  0  0  0
   -0.3613    0.6295   -0.7235 C   0  0  0  0  0  0  0  0  0  0  0  0
    0.8290    0.1992   -1.5796 C   0  0  0  0  0  0  0  0  0  0  0  0
   -0.4949   -1.6765    0.2911 C   0  0  0  0  0  0  0  0  0  0  0  0
    0.7051   -2.1249   -0.5428 C   0  0  0  0  0  0  0  0  0  0  0  0
    2.4574   -0.4906    0.1665 C   0  0  0  0  0  0  0  0  0  0  0  0
   -2.3816   -0.0852    0.4983 C   0  0  0  0  0  0  0  0  0  0  0  0
    4.1600    1.0491    0.7273 C   0  0  0  0  0  0  0  0  0  0  0  0
   -4.5623    0.8241    0.4632 C   0  0  0  0  0  0  0  0  0  0  0  0
    5.0147    2.1254    0.0928 C   0  0  0  0  0  0  0  0  0  0  0  0
   -5.6270    1.2646   -0.5187 C   0  0  0  0  0  0  0  0  0  0  0  0
    2.3096   -1.3610   -1.7269 H   0  0  0  0  0  0  0  0  0  0  0  0
   -1.7086   -0.9563   -1.3146 H   0  0  0  0  0  0  0  0  0  0  0  0
   -0.9290    1.4023   -1.2565 H   0  0  0  0  0  0  0  0  0  0  0  0
    0.0008    1.0996    0.2002 H   0  0  0  0  0  0  0  0  0  0  0  0
   -0.1523   -1.3592    1.2835 H   0  0  0  0  0  0  0  0  0  0  0  0
   -1.1566   -2.5350    0.4622 H   0  0  0  0  0  0  0  0  0  0  0  0
    0.4484   -0.1138   -2.5610 H   0  0  0  0  0  0  0  0  0  0  0  0
    1.4685    1.0687   -1.7693 H   0  0  0  0  0  0  0  0  0  0  0  0
    1.2722   -2.8826    0.0115 H   0  0  0  0  0  0  0  0  0  0  0  0
    0.3275   -2.6243   -1.4449 H   0  0  0  0  0  0  0  0  0  0  0  0
    3.5608    1.4813    1.5365 H   0  0  0  0  0  0  0  0  0  0  0  0
    4.8008    0.2577    1.1318 H   0  0  0  0  0  0  0  0  0  0  0  0
   -4.9532    0.0205    1.0973 H   0  0  0  0  0  0  0  0  0  0  0  0
   -4.2648    1.6711    1.0914 H   0  0  0  0  0  0  0  0  0  0  0  0
    5.6925    2.5701    0.8267 H   0  0  0  0  0  0  0  0  0  0  0  0
    5.6067    1.7119   -0.7304 H   0  0  0  0  0  0  0  0  0  0  0  0
    4.3866    2.9149   -0.3328 H   0  0  0  0  0  0  0  0  0  0  0  0
   -6.5124    1.6358    0.0048 H   0  0  0  0  0  0  0  0  0  0  0  0
   -5.2447    2.0557   -1.1722 H   0  0  0  0  0  0  0  0  0  0  0  0
   -5.9219    0.4324   -1.1664 H   0  0  0  0  0  0  0  0  0  0  0  0
  1 11  1  0  0  0  0
  1 13  1  0  0  0  0
  2 12  1  0  0  0  0
  2 14  1  0  0  0  0
  3 11  2  0  0  0  0
  4 12  2  0  0  0  0
  5  8  1  0  0  0  0
  5 10  1  0  0  0  0
  5 11  1  0  0  0  0
  5 17  1  0  0  0  0
  6  7  1  0  0  0  0
  6  9  1  0  0  0  0
  6 12  1  0  0  0  0
  6 18  1  0  0  0  0
  7  8  1  0  0  0  0
  7 19  1  0  0  0  0
  7 20  1  0  0  0  0
  8 23  1  0  0  0  0
  8 24  1  0  0  0  0
  9 10  1  0  0  0  0
  9 21  1  0  0  0  0
  9 22  1  0  0  0  0
 10 25  1  0  0  0  0
 10 26  1  0  0  0  0
 13 15  1  0  0  0  0
 13 27  1  0  0  0  0
 13 28  1  0  0  0  0
 14 16  1  0  0  0  0
 14 29  1  0  0  0  0
 14 30  1  0  0  0  0
 15 31  1  0  0  0  0
 15 32  1  0  0  0  0
 15 33  1  0  0  0  0
 16 34  1  0  0  0  0
 16 35  1  0  0  0  0
 16 36  1  0  0  0  0
M  END
> <PUBCHEM_COMPOUND_CID>
254555

> <PUBCHEM_CONFORMER_RMSD>
0.8

> <PUBCHEM_CONFORMER_DIVERSEORDER>
1
16
7
26
10
11
44
37
19
39
41
20
8
34
17
28
30
35
21
38
45
22
18
14
15
25
33
46
42
9
13
43
32
23
5
12
24
27
6
40
3
29
36
2
31
4

> <PUBCHEM_MMFF94_PARTIAL_CHARGES>
10
1 -0.43
11 0.66
12 0.66
13 0.28
14 0.28
2 -0.43
3 -0.57
4 -0.57
5 0.06
6 0.06

> <PUBCHEM_EFFECTIVE_ROTOR_COUNT>
7.2

> <PUBCHEM_PHARMACOPHORE_FEATURES>
3
1 3 acceptor
1 4 acceptor
6 5 6 7 8 9 10 rings

> <PUBCHEM_HEAVY_ATOM_COUNT>
16

> <PUBCHEM_ATOM_DEF_STEREO_COUNT>
0

> <PUBCHEM_ATOM_UDEF_STEREO_COUNT>
0

> <PUBCHEM_BOND_DEF_STEREO_COUNT>
0

> <PUBCHEM_BOND_UDEF_STEREO_COUNT>
0

> <PUBCHEM_ISOTOPIC_ATOM_COUNT>
0

> <PUBCHEM_COMPONENT_COUNT>
1

> <PUBCHEM_CACTVS_TAUTO_COUNT>
1

> <PUBCHEM_CONFORMER_ID>
0003E25B00000001

> <PUBCHEM_MMFF94_ENERGY>
16.1316

> <PUBCHEM_FEATURE_SELFOVERLAP>
15.223

> <PUBCHEM_SHAPE_FINGERPRINT>
10498660 4 17846216700049739664
12032990 46 9295288335306617391
122479 349 18341049739445929302
12251169 10 17022910046834291199
12616999 72 15410894020438126623
13288520 33 10665211649763354984
13675066 3 16877944897847424347
1420 369 11170179957011263616
14350574 20 10807933777675616148
14774955 27 18413102870622823437
14993402 34 15482670190812253553
15061688 2 18410573989689174007
15342168 16 18412543249458830924
15375358 24 18187087234958290073
15775835 57 18410290337232668162
16945 1 17530964722023570846
17834072 32 18270119149005881856
1813 80 11674876650173327802
193927 3 7853582348085598984
19784866 140 10807944755612050973
19784866 170 17676487267976891628
19784866 240 7925638833800307820
20112054 13 18261111889272899967
20231682 184 17704354355248071244
204376 136 18342177786335461486
20871999 31 16558734751102216415
21452121 103 18335979757843389634
21618674 25 18335421253313060075
21637258 2 10953738936867401049
21713013 43 12319456567496915449
22926399 37 17846500327000159889
231179 274 18272934929538460320
23559900 14 17532388469148688119
270888 7 18341891930751078544
2838139 119 17489868237125775448
296302 2 18413670206059224015
3060560 45 14836115542410741892
328317 168 18273212002247350677
42 15 14346083005752732581
465052 167 8141790721378413657
474 4 18201721772962183913
4990 188 11527942348748782317
5104073 3 18187936015365043185
56616090 284 11887678398339970692
76465 3 8574449612118025220
83771 10 11530477839705509630

> <PUBCHEM_SHAPE_MULTIPOLES>
305.8
9.78
1.81
1.21
4.88
0.2
0.07
-8.36
1.02
-1.34
-0.06
0
0.07
0.34

> <PUBCHEM_SHAPE_SELFOVERLAP>
604.025

> <PUBCHEM_SHAPE_VOLUME>
180.5

> <PUBCHEM_COORDINATE_TYPE>
2
5
10

$$$$
