256071
  -OEChem-11232109423D

 15 15  0     0  0  0  0  0  0999 V2000
    2.9965   -0.0272   -0.8082 S   0  0  0  0  0  0  0  0  0  0  0  0
   -0.1025    1.2001    0.1817 N   0  0  0  0  0  0  0  0  0  0  0  0
    0.4827   -0.0097    0.3282 C   0  0  0  0  0  0  0  0  0  0  0  0
    1.9356   -0.0123    0.6686 C   0  0  0  0  0  0  0  0  0  0  0  0
   -0.1830   -1.2162    0.1826 C   0  0  0  0  0  0  0  0  0  0  0  0
   -1.5364   -1.1786   -0.1340 C   0  0  0  0  0  0  0  0  0  0  0  0
   -2.1738    0.0469   -0.2930 C   0  0  0  0  0  0  0  0  0  0  0  0
   -1.4190    1.1969   -0.1259 C   0  0  0  0  0  0  0  0  0  0  0  0
    2.1794    0.8837    1.2501 H   0  0  0  0  0  0  0  0  0  0  0  0
    2.1886   -0.8736    1.2965 H   0  0  0  0  0  0  0  0  0  0  0  0
    0.3224   -2.1679    0.3077 H   0  0  0  0  0  0  0  0  0  0  0  0
   -2.0934   -2.1026   -0.2568 H   0  0  0  0  0  0  0  0  0  0  0  0
   -3.2279    0.1002   -0.5398 H   0  0  0  0  0  0  0  0  0  0  0  0
   -1.8689    2.1778   -0.2392 H   0  0  0  0  0  0  0  0  0  0  0  0
    2.6033   -1.2231   -1.2712 H   0  0  0  0  0  0  0  0  0  0  0  0
  1  4  1  0  0  0  0
  1 15  1  0  0  0  0
  2  3  1  0  0  0  0
  2  8  2  0  0  0  0
  3  4  1  0  0  0  0
  3  5  2  0  0  0  0
  4  9  1  0  0  0  0
  4 10  1  0  0  0  0
  5  6  1  0  0  0  0
  5 11  1  0  0  0  0
  6  7  2  0  0  0  0
  6 12  1  0  0  0  0
  7  8  1  0  0  0  0
  7 13  1  0  0  0  0
  8 14  1  0  0  0  0
M  END
> <PUBCHEM_COMPOUND_CID>
256071

> <PUBCHEM_CONFORMER_RMSD>
0.4

> <PUBCHEM_CONFORMER_DIVERSEORDER>
2
4
3
1

> <PUBCHEM_MMFF94_PARTIAL_CHARGES>
13
1 -0.41
11 0.15
12 0.15
13 0.15
14 0.15
15 0.18
2 -0.62
3 0.17
4 0.37
5 -0.15
6 -0.15
7 -0.15
8 0.16

> <PUBCHEM_EFFECTIVE_ROTOR_COUNT>
1

> <PUBCHEM_PHARMACOPHORE_FEATURES>
2
1 2 acceptor
6 2 3 5 6 7 8 rings

> <PUBCHEM_HEAVY_ATOM_COUNT>
8

> <PUBCHEM_ATOM_DEF_STEREO_COUNT>
0

> <PUBCHEM_ATOM_UDEF_STEREO_COUNT>
0

> <PUBCHEM_BOND_DEF_STEREO_COUNT>
0

> <PUBCHEM_BOND_UDEF_STEREO_COUNT>
0

> <PUBCHEM_ISOTOPIC_ATOM_COUNT>
0

> <PUBCHEM_COMPONENT_COUNT>
1

> <PUBCHEM_CACTVS_TAUTO_COUNT>
1

> <PUBCHEM_CONFORMER_ID>
0003E84700000002

> <PUBCHEM_MMFF94_ENERGY>
16.5854

> <PUBCHEM_FEATURE_SELFOVERLAP>
10.148

> <PUBCHEM_SHAPE_FINGERPRINT>
12716758 59 18341050731388273810
12897270 3 18411705400234151950
15310529 11 16732976514069870625
16714656 1 18410576188485524263
20645464 45 17916567834993118570
20653085 51 17676785183845766476
21040471 1 18266729182573445777
21293036 1 18335696174085177247
23552423 10 18115866300328518778
29004967 10 16343701049611907210

> <PUBCHEM_SHAPE_MULTIPOLES>
163.5
3.61
1.3
0.81
2.33
0.01
0.04
-0.04
0.9
-0.59
-0.01
0.36
0.01
0

> <PUBCHEM_SHAPE_SELFOVERLAP>
321.591

> <PUBCHEM_SHAPE_VOLUME>
100.2

> <PUBCHEM_COORDINATE_TYPE>
2
5
10

$$$$
