263034
  -OEChem-11232109443D

 23 24  0     0  0  0  0  0  0999 V2000
   -0.0115   -0.4892    0.0013 O   0  0  0  0  0  0  0  0  0  0  0  0
    2.5242    0.4216    0.9852 O   0  0  0  0  0  0  0  0  0  0  0  0
   -2.5160    0.4135   -0.9871 O   0  0  0  0  0  0  0  0  0  0  0  0
    1.1741   -1.2879   -0.0291 C   0  0  0  0  0  0  0  0  0  0  0  0
   -1.1751   -1.2991    0.0341 C   0  0  0  0  0  0  0  0  0  0  0  0
    2.3651   -0.4283   -0.0629 C   0  0  0  0  0  0  0  0  0  0  0  0
   -2.3868   -0.4146    0.0651 C   0  0  0  0  0  0  0  0  0  0  0  0
    3.3986   -0.2878   -0.9598 C   0  0  0  0  0  0  0  0  0  0  0  0
   -3.3941   -0.2835    0.9608 C   0  0  0  0  0  0  0  0  0  0  0  0
    4.2471    0.7126   -0.4286 C   0  0  0  0  0  0  0  0  0  0  0  0
   -4.2373    0.7194    0.4255 C   0  0  0  0  0  0  0  0  0  0  0  0
    3.6717    1.1122    0.7552 C   0  0  0  0  0  0  0  0  0  0  0  0
   -3.6599    1.1111   -0.7598 C   0  0  0  0  0  0  0  0  0  0  0  0
    1.1511   -1.9344   -0.9143 H   0  0  0  0  0  0  0  0  0  0  0  0
    1.2076   -1.9242    0.8631 H   0  0  0  0  0  0  0  0  0  0  0  0
   -1.1600   -1.9382    0.9246 H   0  0  0  0  0  0  0  0  0  0  0  0
   -1.2169   -1.9348   -0.8580 H   0  0  0  0  0  0  0  0  0  0  0  0
    3.5268   -0.8363   -1.8819 H   0  0  0  0  0  0  0  0  0  0  0  0
   -3.5244   -0.8280    1.8847 H   0  0  0  0  0  0  0  0  0  0  0  0
    5.1632    1.0947   -0.8550 H   0  0  0  0  0  0  0  0  0  0  0  0
   -5.1515    1.1080    0.8504 H   0  0  0  0  0  0  0  0  0  0  0  0
    3.9397    1.8376    1.5094 H   0  0  0  0  0  0  0  0  0  0  0  0
   -3.9241    1.8350   -1.5168 H   0  0  0  0  0  0  0  0  0  0  0  0
  1  4  1  0  0  0  0
  1  5  1  0  0  0  0
  2  6  1  0  0  0  0
  2 12  1  0  0  0  0
  3  7  1  0  0  0  0
  3 13  1  0  0  0  0
  4  6  1  0  0  0  0
  4 14  1  0  0  0  0
  4 15  1  0  0  0  0
  5  7  1  0  0  0  0
  5 16  1  0  0  0  0
  5 17  1  0  0  0  0
  6  8  2  0  0  0  0
  7  9  2  0  0  0  0
  8 10  1  0  0  0  0
  8 18  1  0  0  0  0
  9 11  1  0  0  0  0
  9 19  1  0  0  0  0
 10 12  2  0  0  0  0
 10 20  1  0  0  0  0
 11 13  2  0  0  0  0
 11 21  1  0  0  0  0
 12 22  1  0  0  0  0
 13 23  1  0  0  0  0
M  END
> <PUBCHEM_COMPOUND_CID>
263034

> <PUBCHEM_CONFORMER_RMSD>
0.6

> <PUBCHEM_CONFORMER_DIVERSEORDER>
1
29
8
30
24
32
3
28
10
34
14
27
2
9
31
33
5
15
23
36
4
7
20
35
13
6
18
26
19
12
22
17
25
16
21
11

> <PUBCHEM_MMFF94_PARTIAL_CHARGES>
19
1 -0.56
10 -0.15
11 -0.15
12 -0.01
13 -0.01
18 0.15
19 0.15
2 -0.28
20 0.15
21 0.15
22 0.15
23 0.15
3 -0.28
4 0.46
5 0.46
6 -0.04
7 -0.04
8 -0.15
9 -0.15

> <PUBCHEM_EFFECTIVE_ROTOR_COUNT>
4

> <PUBCHEM_PHARMACOPHORE_FEATURES>
5
1 1 acceptor
1 2 acceptor
1 3 acceptor
5 2 6 8 10 12 rings
5 3 7 9 11 13 rings

> <PUBCHEM_HEAVY_ATOM_COUNT>
13

> <PUBCHEM_ATOM_DEF_STEREO_COUNT>
0

> <PUBCHEM_ATOM_UDEF_STEREO_COUNT>
0

> <PUBCHEM_BOND_DEF_STEREO_COUNT>
0

> <PUBCHEM_BOND_UDEF_STEREO_COUNT>
0

> <PUBCHEM_ISOTOPIC_ATOM_COUNT>
0

> <PUBCHEM_COMPONENT_COUNT>
1

> <PUBCHEM_CACTVS_TAUTO_COUNT>
1

> <PUBCHEM_CONFORMER_ID>
0004037A00000001

> <PUBCHEM_MMFF94_ENERGY>
9.4067

> <PUBCHEM_FEATURE_SELFOVERLAP>
25.378

> <PUBCHEM_SHAPE_FINGERPRINT>
10465860 71 13830129511770076859
11543360 7 15769485521242330613
12251169 10 15647058182839439747
13081056 2 18411703175077193045
14252887 29 12396293751776800240
177051 138 8646771097008805898
17870717 6 11815906673214945825
18186145 218 18131635586266971410
19050596 39 15719396148057850909
19107657 162 9151172060366730124
20281407 28 8646772204952203666
20281475 54 10015594925481068274
20325693 3 14620799306057309425
20645477 56 18411140268015526319
20645477 70 17489038084656785334
20671657 53 11455889161105122739
20767249 442 18334571339150888670
21119208 17 15770060518573787905
212847 35 18410293584407187992
21501925 9 8358257029830467014
22926399 37 18131632266658126553
231179 274 18411980256639866050
23402539 116 15913332368915917624
23402655 69 17203614791654972144
23403322 49 10592046851610958805
23500284 214 18409453591667151299
25 1 18202567267571358982
26918003 58 11891330967403563205
27216 239 18259706705408314521
4028521 119 18201718427425337881
42 15 13334734622068833653
548570 60 18410572885645351460
93112 12 15769770281874355906
9882013 296 15719396148052693091

> <PUBCHEM_SHAPE_MULTIPOLES>
249.93
9.58
1.24
0.98
0.07
0.08
0
-3.72
0
0
0
0
-0.15
0.64

> <PUBCHEM_SHAPE_SELFOVERLAP>
530.756

> <PUBCHEM_SHAPE_VOLUME>
142.3

> <PUBCHEM_COORDINATE_TYPE>
2
5
10

$$$$
