26335
  -OEChem-11232109203D

 17 17  0     0  0  0  0  0  0999 V2000
   -1.2907    1.1564    0.0024 N   0  0  0  0  0  0  0  0  0  0  0  0
    0.4754   -1.0226   -0.0052 N   0  0  0  0  0  0  0  0  0  0  0  0
   -1.7296   -0.1180    0.0013 C   0  0  0  0  0  0  0  0  0  0  0  0
    0.9143    0.2517   -0.0039 C   0  0  0  0  0  0  0  0  0  0  0  0
   -0.8623   -1.1882   -0.0024 C   0  0  0  0  0  0  0  0  0  0  0  0
   -3.2022   -0.3397    0.0035 C   0  0  0  0  0  0  0  0  0  0  0  0
    0.0469    1.3220   -0.0002 C   0  0  0  0  0  0  0  0  0  0  0  0
    2.3518    0.4519   -0.0062 C   0  0  0  0  0  0  0  0  0  0  0  0
    3.2964   -0.5135    0.0107 C   0  0  0  0  0  0  0  0  0  0  0  0
   -1.2072   -2.2155   -0.0035 H   0  0  0  0  0  0  0  0  0  0  0  0
   -3.5050   -0.8965   -0.8889 H   0  0  0  0  0  0  0  0  0  0  0  0
   -3.5017   -0.9015    0.8939 H   0  0  0  0  0  0  0  0  0  0  0  0
   -3.7429    0.6124    0.0071 H   0  0  0  0  0  0  0  0  0  0  0  0
    0.3847    2.3522    0.0010 H   0  0  0  0  0  0  0  0  0  0  0  0
    2.6945    1.4843   -0.0205 H   0  0  0  0  0  0  0  0  0  0  0  0
    4.3473   -0.2430    0.0082 H   0  0  0  0  0  0  0  0  0  0  0  0
    3.0492   -1.5691    0.0271 H   0  0  0  0  0  0  0  0  0  0  0  0
  1  3  1  0  0  0  0
  1  7  2  0  0  0  0
  2  4  2  0  0  0  0
  2  5  1  0  0  0  0
  3  5  2  0  0  0  0
  3  6  1  0  0  0  0
  4  7  1  0  0  0  0
  4  8  1  0  0  0  0
  5 10  1  0  0  0  0
  6 11  1  0  0  0  0
  6 12  1  0  0  0  0
  6 13  1  0  0  0  0
  7 14  1  0  0  0  0
  8  9  2  0  0  0  0
  8 15  1  0  0  0  0
  9 16  1  0  0  0  0
  9 17  1  0  0  0  0
M  END
> <PUBCHEM_COMPOUND_CID>
26335

> <PUBCHEM_CONFORMER_RMSD>
0.4

> <PUBCHEM_CONFORMER_DIVERSEORDER>
1
2

> <PUBCHEM_MMFF94_PARTIAL_CHARGES>
14
1 -0.62
10 0.15
14 0.15
15 0.15
16 0.15
17 0.15
2 -0.62
3 0.17
4 0.34
5 0.16
6 0.14
7 0.16
8 -0.18
9 -0.3

> <PUBCHEM_EFFECTIVE_ROTOR_COUNT>
1

> <PUBCHEM_PHARMACOPHORE_FEATURES>
4
1 1 acceptor
1 2 acceptor
1 9 hydrophobe
6 1 2 3 4 5 7 rings

> <PUBCHEM_HEAVY_ATOM_COUNT>
9

> <PUBCHEM_ATOM_DEF_STEREO_COUNT>
0

> <PUBCHEM_ATOM_UDEF_STEREO_COUNT>
0

> <PUBCHEM_BOND_DEF_STEREO_COUNT>
0

> <PUBCHEM_BOND_UDEF_STEREO_COUNT>
0

> <PUBCHEM_ISOTOPIC_ATOM_COUNT>
0

> <PUBCHEM_COMPONENT_COUNT>
1

> <PUBCHEM_CACTVS_TAUTO_COUNT>
1

> <PUBCHEM_CONFORMER_ID>
000066DF00000001

> <PUBCHEM_MMFF94_ENERGY>
21.564

> <PUBCHEM_FEATURE_SELFOVERLAP>
20.301

> <PUBCHEM_SHAPE_FINGERPRINT>
10857977 72 18411691119061775888
11062470 55 12823297900779139131
12032990 46 18410018753455045651
14325111 11 18410856546944941156
15310529 11 16298655136031862378
16714656 1 18410855468744476684
16945 1 18410856572540528719
193761 8 17689997834508678351
21040471 1 18338518538623720356
23235685 24 18410006641615284589
23402655 69 18195790896659786741
23552423 10 18116151254333740406
2748010 2 18123190104188556287
29004967 10 18334019414494573897
369184 2 15195565689034872998
5084963 1 18411700984633381096

> <PUBCHEM_SHAPE_MULTIPOLES>
175.25
4.43
1.26
0.6
0.82
0.12
0
-0.75
0.01
-0.1
0
0.01
0
0

> <PUBCHEM_SHAPE_SELFOVERLAP>
357.913

> <PUBCHEM_SHAPE_VOLUME>
100.9

> <PUBCHEM_COORDINATE_TYPE>
2
5
10

$$$$
