26333
  -OEChem-11232111033D

 25 25  0     0  0  0  0  0  0999 V2000
    0.6001    1.4176   -0.4102 N   0  0  0  0  0  0  0  0  0  0  0  0
    2.0633   -0.8337    0.4006 N   0  0  0  0  0  0  0  0  0  0  0  0
   -2.3857    0.0741   -0.0968 C   0  0  0  0  0  0  0  0  0  0  0  0
   -1.2458    0.0367   -1.1335 C   0  0  0  0  0  0  0  0  0  0  0  0
    0.1316    0.1683   -0.5309 C   0  0  0  0  0  0  0  0  0  0  0  0
   -2.2183   -1.0016    0.9794 C   0  0  0  0  0  0  0  0  0  0  0  0
   -2.4434    1.4555    0.5602 C   0  0  0  0  0  0  0  0  0  0  0  0
    0.8332   -0.9391   -0.1401 C   0  0  0  0  0  0  0  0  0  0  0  0
    0.2861   -2.3175   -0.2883 C   0  0  0  0  0  0  0  0  0  0  0  0
    1.8301    1.5228    0.1307 C   0  0  0  0  0  0  0  0  0  0  0  0
    2.5487    0.4170    0.5289 C   0  0  0  0  0  0  0  0  0  0  0  0
   -3.3332   -0.0950   -0.6231 H   0  0  0  0  0  0  0  0  0  0  0  0
   -1.3849    0.8761   -1.8302 H   0  0  0  0  0  0  0  0  0  0  0  0
   -1.3386   -0.8427   -1.7761 H   0  0  0  0  0  0  0  0  0  0  0  0
   -1.3248   -0.8644    1.5939 H   0  0  0  0  0  0  0  0  0  0  0  0
   -2.2351   -2.0015    0.5387 H   0  0  0  0  0  0  0  0  0  0  0  0
   -3.0710   -0.9602    1.6684 H   0  0  0  0  0  0  0  0  0  0  0  0
   -3.3371    1.5354    1.1895 H   0  0  0  0  0  0  0  0  0  0  0  0
   -1.5790    1.6487    1.2034 H   0  0  0  0  0  0  0  0  0  0  0  0
   -2.5011    2.2497   -0.1916 H   0  0  0  0  0  0  0  0  0  0  0  0
   -0.4463   -2.4575   -1.0824 H   0  0  0  0  0  0  0  0  0  0  0  0
    1.1131   -2.9937   -0.5407 H   0  0  0  0  0  0  0  0  0  0  0  0
   -0.1180   -2.6752    0.6622 H   0  0  0  0  0  0  0  0  0  0  0  0
    2.2208    2.5275    0.2344 H   0  0  0  0  0  0  0  0  0  0  0  0
    3.5369    0.5025    0.9635 H   0  0  0  0  0  0  0  0  0  0  0  0
  1  5  2  0  0  0  0
  1 10  1  0  0  0  0
  2  8  2  0  0  0  0
  2 11  1  0  0  0  0
  3  4  1  0  0  0  0
  3  6  1  0  0  0  0
  3  7  1  0  0  0  0
  3 12  1  0  0  0  0
  4  5  1  0  0  0  0
  4 13  1  0  0  0  0
  4 14  1  0  0  0  0
  5  8  1  0  0  0  0
  6 15  1  0  0  0  0
  6 16  1  0  0  0  0
  6 17  1  0  0  0  0
  7 18  1  0  0  0  0
  7 19  1  0  0  0  0
  7 20  1  0  0  0  0
  8  9  1  0  0  0  0
  9 21  1  0  0  0  0
  9 22  1  0  0  0  0
  9 23  1  0  0  0  0
 10 11  2  0  0  0  0
 10 24  1  0  0  0  0
 11 25  1  0  0  0  0
M  END
> <PUBCHEM_COMPOUND_CID>
26333

> <PUBCHEM_CONFORMER_RMSD>
0.4

> <PUBCHEM_CONFORMER_DIVERSEORDER>
1
2
3

> <PUBCHEM_MMFF94_PARTIAL_CHARGES>
10
1 -0.62
10 0.16
11 0.16
2 -0.62
24 0.15
25 0.15
4 0.14
5 0.17
8 0.17
9 0.14

> <PUBCHEM_EFFECTIVE_ROTOR_COUNT>
2

> <PUBCHEM_PHARMACOPHORE_FEATURES>
4
1 1 acceptor
1 2 acceptor
3 3 6 7 hydrophobe
6 1 2 5 8 10 11 rings

> <PUBCHEM_HEAVY_ATOM_COUNT>
11

> <PUBCHEM_ATOM_DEF_STEREO_COUNT>
0

> <PUBCHEM_ATOM_UDEF_STEREO_COUNT>
0

> <PUBCHEM_BOND_DEF_STEREO_COUNT>
0

> <PUBCHEM_BOND_UDEF_STEREO_COUNT>
0

> <PUBCHEM_ISOTOPIC_ATOM_COUNT>
0

> <PUBCHEM_COMPONENT_COUNT>
1

> <PUBCHEM_CACTVS_TAUTO_COUNT>
2

> <PUBCHEM_CONFORMER_ID>
000066DD00000001

> <PUBCHEM_MMFF94_ENERGY>
30.1246

> <PUBCHEM_FEATURE_SELFOVERLAP>
20.301

> <PUBCHEM_SHAPE_FINGERPRINT>
11471102 22 18335148612799130539
12696612 119 18335146409533849693
15775835 57 17704071819615099905
16945 1 18267583705019098382
20653085 51 15553620658408874728
21040471 1 18339920549404240516
2748010 2 18409441458389710916
29004967 10 18334574594736060002
5084963 1 17775002431277107351

> <PUBCHEM_SHAPE_MULTIPOLES>
216.41
3.67
1.93
0.93
0.52
0.52
-0.04
-0.92
1.01
-0.18
0.05
0.31
0.04
0.05

> <PUBCHEM_SHAPE_SELFOVERLAP>
436.187

> <PUBCHEM_SHAPE_VOLUME>
126.7

> <PUBCHEM_COORDINATE_TYPE>
2
5
10

$$$$
