263620
  -OEChem-11232108523D

 29 28  0     1  0  0  0  0  0999 V2000
   -1.6948   -0.1224   -0.3871 O   0  0  0  0  0  0  0  0  0  0  0  0
    2.4506   -0.0916    0.2619 O   0  0  0  0  0  0  0  0  0  0  0  0
    0.9596    0.4651   -1.4073 O   0  0  0  0  0  0  0  0  0  0  0  0
   -3.6492    0.0724    0.8292 O   0  0  0  0  0  0  0  0  0  0  0  0
    0.3758   -1.2210    0.2478 C   0  0  1  0  0  0  0  0  0  0  0  0
   -0.9526   -0.6114    0.7274 C   0  0  1  0  0  0  0  0  0  0  0  0
    0.1524   -2.3740   -0.7325 C   0  0  0  0  0  0  0  0  0  0  0  0
   -0.7658    0.5144    1.7384 C   0  0  0  0  0  0  0  0  0  0  0  0
    1.2667   -0.1790   -0.4124 C   0  0  0  0  0  0  0  0  0  0  0  0
    3.3940    0.8452   -0.2674 C   0  0  0  0  0  0  0  0  0  0  0  0
   -2.9205    0.4051   -0.0957 C   0  0  0  0  0  0  0  0  0  0  0  0
    4.6439    0.8221    0.5863 C   0  0  0  0  0  0  0  0  0  0  0  0
   -3.2602    1.4751   -1.0886 C   0  0  0  0  0  0  0  0  0  0  0  0
    0.9018   -1.6243    1.1233 H   0  0  0  0  0  0  0  0  0  0  0  0
   -1.5310   -1.4160    1.2013 H   0  0  0  0  0  0  0  0  0  0  0  0
    1.1093   -2.8199   -1.0256 H   0  0  0  0  0  0  0  0  0  0  0  0
   -0.3439   -2.0383   -1.6495 H   0  0  0  0  0  0  0  0  0  0  0  0
   -0.4615   -3.1584   -0.2781 H   0  0  0  0  0  0  0  0  0  0  0  0
   -1.7049    0.7950    2.2246 H   0  0  0  0  0  0  0  0  0  0  0  0
   -0.0725    0.2146    2.5312 H   0  0  0  0  0  0  0  0  0  0  0  0
   -0.3767    1.4200    1.2599 H   0  0  0  0  0  0  0  0  0  0  0  0
    3.6442    0.5689   -1.2977 H   0  0  0  0  0  0  0  0  0  0  0  0
    2.9564    1.8497   -0.2560 H   0  0  0  0  0  0  0  0  0  0  0  0
    5.3883    1.5288    0.2091 H   0  0  0  0  0  0  0  0  0  0  0  0
    4.4065    1.0788    1.6239 H   0  0  0  0  0  0  0  0  0  0  0  0
    5.0830   -0.1809    0.5995 H   0  0  0  0  0  0  0  0  0  0  0  0
   -3.3009    1.0484   -2.0938 H   0  0  0  0  0  0  0  0  0  0  0  0
   -2.5169    2.2749   -1.0392 H   0  0  0  0  0  0  0  0  0  0  0  0
   -4.2409    1.8954   -0.8479 H   0  0  0  0  0  0  0  0  0  0  0  0
  1  6  1  0  0  0  0
  1 11  1  0  0  0  0
  2  9  1  0  0  0  0
  2 10  1  0  0  0  0
  3  9  2  0  0  0  0
  4 11  2  0  0  0  0
  5  6  1  0  0  0  0
  5  7  1  0  0  0  0
  5  9  1  0  0  0  0
  5 14  1  0  0  0  0
  6  8  1  0  0  0  0
  6 15  1  0  0  0  0
  7 16  1  0  0  0  0
  7 17  1  0  0  0  0
  7 18  1  0  0  0  0
  8 19  1  0  0  0  0
  8 20  1  0  0  0  0
  8 21  1  0  0  0  0
 10 12  1  0  0  0  0
 10 22  1  0  0  0  0
 10 23  1  0  0  0  0
 11 13  1  0  0  0  0
 12 24  1  0  0  0  0
 12 25  1  0  0  0  0
 12 26  1  0  0  0  0
 13 27  1  0  0  0  0
 13 28  1  0  0  0  0
 13 29  1  0  0  0  0
M  END
> <PUBCHEM_COMPOUND_CID>
263620

> <PUBCHEM_CONFORMER_RMSD>
0.6

> <PUBCHEM_CONFORMER_DIVERSEORDER>
11
158
205
303
313
174
121
360
77
445
464
254
487
485
257
374
459
298
314
366
297
480
189
28
441
392
461
110
350
193
475
172
449
116
182
260
295
75
339
322
163
481
414
410
418
235
419
186
12
149
473
422
474
185
376
336
364
42
33
293
440
181
320
112
212
402
9
208
317
139
102
194
389
34
202
213
106
448
188
70
51
115
160
451
436
141
368
18
53
429
359
231
333
331
271
442
349
133
210
340
380
446
125
223
242
433
250
88
361
304
63
488
423
482
147
311
280
255
413
403
209
354
373
382
444
383
236
306
477
134
52
23
318
420
437
490
30
469
324
10
302
264
26
222
64
346
83
168
19
370
150
195
13
330
138
371
45
165
15
21
94
329
20
237
405
27
386
2
457
434
81
362
180
74
92
247
372
394
244
69
363
60
54
5
91
424
128
344
261
471
191
148
207
438
130
384
443
44
7
251
59
300
84
144
123
355
356
40
122
43
32
334
367
101
118
108
233
96
230
48
287
284
325
201
415
245
37
465
95
385
167
36
179
476
387
3
432
90
86
479
226
400
57
315
166
365
221
323
470
4
272
352
171
351
288
435
379
169
412
183
454
249
277
308
49
234
240
492
99
199
215
145
50
357
137
35
267
309
120
76
301
114
338
395
61
266
393
155
252
6
381
156
22
326
276
113
211
192
455
175
369
452
143
328
378
127
47
243
296
239
135
140
262
486
447
89
462
421
68
428
170
142
375
453
259
117
146
353
319
111
246
107
219
198
31
407
416
197
206
310
342
409
82
71
153
450
265
390
216
278
176
299
78
491
98
184
483
430
131
426
80
8
406
270
348
151
227
66
100
152
14
283
256
132
72
190
460
431
427
238
248
358
411
274
472
217
294
1
289
345
124
232
439
341
55
229
286
228
220
157
307
484
203
321
377
316
279
159
24
105
154
87
425
39
62
253
478
347
417
173
467
273
218
67
275
312
468
41
109
17
129
29
291
290
263
16
281
258
164
161
397
335
214
292
119
282
285
466
58
25
162
305
268
269
177
79
332
126
200
85
399
489
104
46
136
463
456
56
343
93
388
196
65
38
225
404
224
408
241
458
391
396
187
401
398
97
73
178
103
327
337
204

> <PUBCHEM_MMFF94_PARTIAL_CHARGES>
10
1 -0.43
10 0.28
11 0.66
13 0.06
2 -0.43
3 -0.57
4 -0.57
5 0.06
6 0.28
9 0.66

> <PUBCHEM_EFFECTIVE_ROTOR_COUNT>
6

> <PUBCHEM_PHARMACOPHORE_FEATURES>
3
1 3 acceptor
1 4 acceptor
1 7 hydrophobe

> <PUBCHEM_HEAVY_ATOM_COUNT>
13

> <PUBCHEM_ATOM_DEF_STEREO_COUNT>
0

> <PUBCHEM_ATOM_UDEF_STEREO_COUNT>
2

> <PUBCHEM_BOND_DEF_STEREO_COUNT>
0

> <PUBCHEM_BOND_UDEF_STEREO_COUNT>
0

> <PUBCHEM_ISOTOPIC_ATOM_COUNT>
0

> <PUBCHEM_COMPONENT_COUNT>
1

> <PUBCHEM_CACTVS_TAUTO_COUNT>
1

> <PUBCHEM_CONFORMER_ID>
000405C40000000B

> <PUBCHEM_MMFF94_ENERGY>
18.1548

> <PUBCHEM_FEATURE_SELFOVERLAP>
15.223

> <PUBCHEM_SHAPE_FINGERPRINT>
11543360 7 14764340578753827512
12032990 46 9223229663242486540
12119455 92 18335126579991396198
12138202 97 17774723177073094678
12251169 10 16805609199928477928
124424 183 15864065481609899845
12897270 3 15338840854321595760
13571099 52 17968378944486500151
14128692 85 12751230436985356379
15375462 478 17386009506836889839
15775835 57 18411138047517232870
16945 1 16630520734933360490
17862501 102 16081090424116762913
18186145 218 18202571661264523388
187816 3 17632577171166859160
200 152 11312063158089049476
20281407 28 11674870122023244520
20645477 56 18270121348186918672
207724 885 12252193990643222899
20871999 31 15410605966004508809
21028194 46 18334304162204734855
21119208 17 14908186347636307504
21499 59 18273211993224971014
21524375 3 18408604794186083046
228727 97 17131559353263378715
23382010 3 17845633967297331677
23402539 116 17203891855610579536
23419403 2 16753755978159667235
23557571 272 18041859319856468893
305870 269 17313940810429918667
353137 74 17704078343633421449
528716 315 15697998548317684741
57426455 70 13695867013015113300
59915604 170 16988840609574363082
83771 10 9223231853638780236

> <PUBCHEM_SHAPE_MULTIPOLES>
244.06
6.66
1.57
1.26
3.71
0.95
-0.18
-3.96
-0.12
-0.07
0.41
-0.49
-0.26
0.45

> <PUBCHEM_SHAPE_SELFOVERLAP>
463.659

> <PUBCHEM_SHAPE_VOLUME>
150.8

> <PUBCHEM_COORDINATE_TYPE>
2
5
10

$$$$
