26630
  -OEChem-11232109493D

 26 25  0     0  0  0  0  0  0999 V2000
    4.1852   -0.8388    0.6399 O   0  0  0  0  0  0  0  0  0  0  0  0
   -2.8945   -0.2728   -0.2835 C   0  0  0  0  0  0  0  0  0  0  0  0
   -1.4927    0.2561    0.0353 C   0  0  0  0  0  0  0  0  0  0  0  0
   -3.9505    0.3895    0.6020 C   0  0  0  0  0  0  0  0  0  0  0  0
   -0.4036   -0.3588   -0.8494 C   0  0  0  0  0  0  0  0  0  0  0  0
   -5.3480   -0.1093    0.2704 C   0  0  0  0  0  0  0  0  0  0  0  0
    0.9677    0.1789   -0.5507 C   0  0  0  0  0  0  0  0  0  0  0  0
    1.9674   -0.5808   -0.0842 C   0  0  0  0  0  0  0  0  0  0  0  0
    3.3292   -0.0613    0.2176 C   0  0  0  0  0  0  0  0  0  0  0  0
    3.6398    1.3973    0.0026 C   0  0  0  0  0  0  0  0  0  0  0  0
   -2.9184   -1.3596   -0.1391 H   0  0  0  0  0  0  0  0  0  0  0  0
   -3.1252   -0.0811   -1.3384 H   0  0  0  0  0  0  0  0  0  0  0  0
   -1.2615    0.0537    1.0890 H   0  0  0  0  0  0  0  0  0  0  0  0
   -1.4832    1.3471   -0.0849 H   0  0  0  0  0  0  0  0  0  0  0  0
   -3.7345    0.1830    1.6567 H   0  0  0  0  0  0  0  0  0  0  0  0
   -3.9181    1.4774    0.4710 H   0  0  0  0  0  0  0  0  0  0  0  0
   -0.6293   -0.1508   -1.9025 H   0  0  0  0  0  0  0  0  0  0  0  0
   -0.4226   -1.4501   -0.7374 H   0  0  0  0  0  0  0  0  0  0  0  0
   -5.4241   -1.1910    0.4205 H   0  0  0  0  0  0  0  0  0  0  0  0
   -5.6073    0.1128   -0.7697 H   0  0  0  0  0  0  0  0  0  0  0  0
   -6.0868    0.3761    0.9157 H   0  0  0  0  0  0  0  0  0  0  0  0
    1.1114    1.2384   -0.7399 H   0  0  0  0  0  0  0  0  0  0  0  0
    1.8156   -1.6402    0.1005 H   0  0  0  0  0  0  0  0  0  0  0  0
    2.9979    2.0172    0.6339 H   0  0  0  0  0  0  0  0  0  0  0  0
    3.5173    1.6579   -1.0518 H   0  0  0  0  0  0  0  0  0  0  0  0
    4.6802    1.5893    0.2827 H   0  0  0  0  0  0  0  0  0  0  0  0
  1  9  2  0  0  0  0
  2  3  1  0  0  0  0
  2  4  1  0  0  0  0
  2 11  1  0  0  0  0
  2 12  1  0  0  0  0
  3  5  1  0  0  0  0
  3 13  1  0  0  0  0
  3 14  1  0  0  0  0
  4  6  1  0  0  0  0
  4 15  1  0  0  0  0
  4 16  1  0  0  0  0
  5  7  1  0  0  0  0
  5 17  1  0  0  0  0
  5 18  1  0  0  0  0
  6 19  1  0  0  0  0
  6 20  1  0  0  0  0
  6 21  1  0  0  0  0
  7  8  2  3  0  0  0
  7 22  1  0  0  0  0
  8  9  1  0  0  0  0
  8 23  1  0  0  0  0
  9 10  1  0  0  0  0
 10 24  1  0  0  0  0
 10 25  1  0  0  0  0
 10 26  1  0  0  0  0
M  END
> <PUBCHEM_COMPOUND_CID>
26630

> <PUBCHEM_CONFORMER_RMSD>
0.6

> <PUBCHEM_CONFORMER_DIVERSEORDER>
3
83
50
30
65
2
49
86
46
1
56
85
59
10
82
12
60
15
88
13
34
87
80
63
14
16
22
84
11
37
42
41
53
28
67
81
73
55
64
24
45
5
31
51
35
54
18
32
44
8
40
9
79
76
4
71
23
47
77
7
21
20
78
57
72
52
61
6
70
26
74
39
25
38
36
58
69
43
29
62
17
19
48
33
75
66
27
68

> <PUBCHEM_MMFF94_PARTIAL_CHARGES>
8
1 -0.57
10 0.06
22 0.15
23 0.15
5 0.14
7 -0.29
8 -0.14
9 0.49

> <PUBCHEM_EFFECTIVE_ROTOR_COUNT>
5

> <PUBCHEM_PHARMACOPHORE_FEATURES>
3
1 1 acceptor
1 6 hydrophobe
5 2 3 4 5 7 hydrophobe

> <PUBCHEM_HEAVY_ATOM_COUNT>
10

> <PUBCHEM_ATOM_DEF_STEREO_COUNT>
0

> <PUBCHEM_ATOM_UDEF_STEREO_COUNT>
0

> <PUBCHEM_BOND_DEF_STEREO_COUNT>
0

> <PUBCHEM_BOND_UDEF_STEREO_COUNT>
1

> <PUBCHEM_ISOTOPIC_ATOM_COUNT>
0

> <PUBCHEM_COMPONENT_COUNT>
1

> <PUBCHEM_CACTVS_TAUTO_COUNT>
5

> <PUBCHEM_CONFORMER_ID>
0000680600000003

> <PUBCHEM_MMFF94_ENERGY>
3.2759

> <PUBCHEM_FEATURE_SELFOVERLAP>
15.223

> <PUBCHEM_SHAPE_FINGERPRINT>
11062470 55 18130790057730477063
114248 4 11239993456232229039
11987891 27 12035443964877429417
11987891 38 11025795392596603241
14123238 8 18413672426673373581
14251717 144 8646501712423601512
14252887 29 17458348506989789362
177051 138 16008747996221387942
17834072 33 18272085050173721479
17834076 25 16774081769691902209
20719005 15 18412826884824917299
21119208 17 9727632804417679771
212847 35 17632577154171749432
21293036 1 10664098952190360911
22485316 2 12540700344371742385
23402539 116 18408316684444703989
23402655 69 10375870779293555546
42 15 18040999527153589059
42788 4 18410575081090811129
449060 50 18413390946958629653

> <PUBCHEM_SHAPE_MULTIPOLES>
199.93
10.54
0.94
0.8
6.41
0.2
0.03
0.85
-2.52
-0.82
-0.01
-0.04
-0.05
-0.41

> <PUBCHEM_SHAPE_SELFOVERLAP>
362.21

> <PUBCHEM_SHAPE_VOLUME>
128.6

> <PUBCHEM_COORDINATE_TYPE>
2
5
10

$$$$
