2723653
  -OEChem-11232109143D

 24 24  0     0  0  0  0  0  0999 V2000
   -2.1841    1.2772    0.5544 O   0  0  0  0  0  0  0  0  0  0  0  0
   -2.8310   -1.3692    0.0066 O   0  0  0  0  0  0  0  0  0  0  0  0
    1.1372   -0.1470    0.0025 C   0  0  0  0  0  0  0  0  0  0  0  0
    0.1276    0.7749    0.2790 C   0  0  0  0  0  0  0  0  0  0  0  0
   -1.2067    0.3684    0.2817 C   0  0  0  0  0  0  0  0  0  0  0  0
    2.5284    0.2770   -0.0007 C   0  0  0  0  0  0  0  0  0  0  0  0
    0.8125   -1.4757   -0.2711 C   0  0  0  0  0  0  0  0  0  0  0  0
   -1.5315   -0.9603    0.0081 C   0  0  0  0  0  0  0  0  0  0  0  0
   -0.5220   -1.8823   -0.2681 C   0  0  0  0  0  0  0  0  0  0  0  0
    2.8604    1.7118   -0.3697 C   0  0  0  0  0  0  0  0  0  0  0  0
    3.5469   -0.5607    0.3299 C   0  0  0  0  0  0  0  0  0  0  0  0
   -2.7376    1.9858   -0.5527 C   0  0  0  0  0  0  0  0  0  0  0  0
    0.3500    1.8140    0.5073 H   0  0  0  0  0  0  0  0  0  0  0  0
    1.5664   -2.2197   -0.5139 H   0  0  0  0  0  0  0  0  0  0  0  0
   -0.7618   -2.9192   -0.4880 H   0  0  0  0  0  0  0  0  0  0  0  0
    2.5709    2.3984    0.4324 H   0  0  0  0  0  0  0  0  0  0  0  0
    2.3468    2.0026   -1.2927 H   0  0  0  0  0  0  0  0  0  0  0  0
    3.9334    1.8486   -0.5453 H   0  0  0  0  0  0  0  0  0  0  0  0
    4.5759   -0.2135    0.3238 H   0  0  0  0  0  0  0  0  0  0  0  0
    3.3924   -1.5898    0.6348 H   0  0  0  0  0  0  0  0  0  0  0  0
   -3.2010    1.2925   -1.2617 H   0  0  0  0  0  0  0  0  0  0  0  0
   -1.9646    2.5762   -1.0549 H   0  0  0  0  0  0  0  0  0  0  0  0
   -3.5064    2.6653   -0.1749 H   0  0  0  0  0  0  0  0  0  0  0  0
   -2.8640   -2.3183   -0.2036 H   0  0  0  0  0  0  0  0  0  0  0  0
  1  5  1  0  0  0  0
  1 12  1  0  0  0  0
  2  8  1  0  0  0  0
  2 24  1  0  0  0  0
  3  4  2  0  0  0  0
  3  6  1  0  0  0  0
  3  7  1  0  0  0  0
  4  5  1  0  0  0  0
  4 13  1  0  0  0  0
  5  8  2  0  0  0  0
  6 10  1  0  0  0  0
  6 11  2  0  0  0  0
  7  9  2  0  0  0  0
  7 14  1  0  0  0  0
  8  9  1  0  0  0  0
  9 15  1  0  0  0  0
 10 16  1  0  0  0  0
 10 17  1  0  0  0  0
 10 18  1  0  0  0  0
 11 19  1  0  0  0  0
 11 20  1  0  0  0  0
 12 21  1  0  0  0  0
 12 22  1  0  0  0  0
 12 23  1  0  0  0  0
M  END
> <PUBCHEM_COMPOUND_CID>
2723653

> <PUBCHEM_CONFORMER_RMSD>
0.6

> <PUBCHEM_CONFORMER_DIVERSEORDER>
1
2

> <PUBCHEM_MMFF94_PARTIAL_CHARGES>
18
1 -0.36
10 0.14
11 -0.3
12 0.28
13 0.15
14 0.15
15 0.15
19 0.15
2 -0.53
20 0.15
24 0.45
3 0.03
4 -0.15
5 0.08
6 -0.17
7 -0.15
8 0.08
9 -0.15

> <PUBCHEM_EFFECTIVE_ROTOR_COUNT>
2

> <PUBCHEM_PHARMACOPHORE_FEATURES>
3
1 1 acceptor
1 2 donor
6 3 4 5 7 8 9 rings

> <PUBCHEM_HEAVY_ATOM_COUNT>
12

> <PUBCHEM_ATOM_DEF_STEREO_COUNT>
0

> <PUBCHEM_ATOM_UDEF_STEREO_COUNT>
0

> <PUBCHEM_BOND_DEF_STEREO_COUNT>
0

> <PUBCHEM_BOND_UDEF_STEREO_COUNT>
0

> <PUBCHEM_ISOTOPIC_ATOM_COUNT>
0

> <PUBCHEM_COMPONENT_COUNT>
1

> <PUBCHEM_CACTVS_TAUTO_COUNT>
3

> <PUBCHEM_CONFORMER_ID>
00298F4500000001

> <PUBCHEM_MMFF94_ENERGY>
45.3444

> <PUBCHEM_FEATURE_SELFOVERLAP>
15.223

> <PUBCHEM_SHAPE_FINGERPRINT>
10608611 8 18412260657795975712
11206711 2 18342453794071843277
12932764 1 18260276239282914848
13380535 21 18270134404544704539
13380535 76 18268143171833339303
14325111 11 18411420618069410616
14614273 12 18409448068513112989
14897335 6 18268140972778259815
15775835 57 18334021583674909652
16945 1 18268707401581552210
18186145 218 18201446852495917976
20510252 161 18272936063177601368
20653085 51 18336275578105801576
20871998 184 18129669745323379407
21028194 46 18343303673615676658
21040471 1 18341896259908723082
21501502 16 18410293622608212928
21524375 3 18337387124232064257
23402539 116 18270387403941218015
23402655 69 18055055585631305533
23463225 33 18409166589231106250
23552423 10 18408888429927144874
23559900 14 18059576859386150010
2748010 2 18270411481285208119
369184 2 18335983172411072226
5084963 1 18201442510109778650
528886 8 18340198579553429208
6333449 129 18341891874826196121

> <PUBCHEM_SHAPE_MULTIPOLES>
235.22
4.95
2.1
0.69
1.64
0.16
-0.01
1.5
-0.02
-0.91
-0.31
-0.02
0.07
-0.07

> <PUBCHEM_SHAPE_SELFOVERLAP>
486.173

> <PUBCHEM_SHAPE_VOLUME>
136.9

> <PUBCHEM_COORDINATE_TYPE>
2
5
10

$$$$
