2723627
  -OEChem-11232108413D

 24 24  0     1  0  0  0  0  0999 V2000
    0.9131   -1.0597    0.0946 O   0  0  0  0  0  0  0  0  0  0  0  0
   -0.9177    1.0625   -0.0936 O   0  0  0  0  0  0  0  0  0  0  0  0
    1.6533    0.8361    1.3161 O   0  0  0  0  0  0  0  0  0  0  0  0
   -1.6062   -0.8464   -1.3251 O   0  0  0  0  0  0  0  0  0  0  0  0
    3.6203   -0.5365   -0.0006 O   0  0  0  0  0  0  0  0  0  0  0  0
   -3.6318    0.5446    0.0191 O   0  0  0  0  0  0  0  0  0  0  0  0
    1.3814    0.2913    0.0240 C   0  0  2  0  0  0  0  0  0  0  0  0
   -1.3927   -0.2871   -0.0280 C   0  0  1  0  0  0  0  0  0  0  0  0
   -0.3730   -1.1540    0.7128 C   0  0  0  0  0  0  0  0  0  0  0  0
    0.3647    1.1580   -0.7191 C   0  0  0  0  0  0  0  0  0  0  0  0
    2.7087    0.2657   -0.7275 C   0  0  0  0  0  0  0  0  0  0  0  0
   -2.7202   -0.2743    0.7273 C   0  0  0  0  0  0  0  0  0  0  0  0
   -0.6649   -2.2094    0.6860 H   0  0  0  0  0  0  0  0  0  0  0  0
   -0.2751   -0.8555    1.7629 H   0  0  0  0  0  0  0  0  0  0  0  0
    0.2651    0.8605   -1.7692 H   0  0  0  0  0  0  0  0  0  0  0  0
    0.6576    2.2129   -0.6903 H   0  0  0  0  0  0  0  0  0  0  0  0
    3.1411    1.2669   -0.8259 H   0  0  0  0  0  0  0  0  0  0  0  0
    2.5978   -0.1767   -1.7224 H   0  0  0  0  0  0  0  0  0  0  0  0
   -2.6008    0.1443    1.7321 H   0  0  0  0  0  0  0  0  0  0  0  0
   -3.1476   -1.2801    0.7938 H   0  0  0  0  0  0  0  0  0  0  0  0
    0.8403    1.2565    1.6435 H   0  0  0  0  0  0  0  0  0  0  0  0
   -0.7782   -1.2605   -1.6215 H   0  0  0  0  0  0  0  0  0  0  0  0
    3.7159   -0.1452    0.8846 H   0  0  0  0  0  0  0  0  0  0  0  0
   -4.4682    0.5391    0.5151 H   0  0  0  0  0  0  0  0  0  0  0  0
  1  7  1  0  0  0  0
  1  9  1  0  0  0  0
  2  8  1  0  0  0  0
  2 10  1  0  0  0  0
  3  7  1  0  0  0  0
  3 21  1  0  0  0  0
  4  8  1  0  0  0  0
  4 22  1  0  0  0  0
  5 11  1  0  0  0  0
  5 23  1  0  0  0  0
  6 12  1  0  0  0  0
  6 24  1  0  0  0  0
  7 10  1  0  0  0  0
  7 11  1  0  0  0  0
  8  9  1  0  0  0  0
  8 12  1  0  0  0  0
  9 13  1  0  0  0  0
  9 14  1  0  0  0  0
 10 15  1  0  0  0  0
 10 16  1  0  0  0  0
 11 17  1  0  0  0  0
 11 18  1  0  0  0  0
 12 19  1  0  0  0  0
 12 20  1  0  0  0  0
M  END
> <PUBCHEM_COMPOUND_CID>
2723627

> <PUBCHEM_CONFORMER_RMSD>
0.6

> <PUBCHEM_CONFORMER_DIVERSEORDER>
1
8
5
7
6
3
2
4

> <PUBCHEM_MMFF94_PARTIAL_CHARGES>
16
1 -0.56
10 0.28
11 0.28
12 0.28
2 -0.56
21 0.4
22 0.4
23 0.4
24 0.4
3 -0.68
4 -0.68
5 -0.68
6 -0.68
7 0.56
8 0.56
9 0.28

> <PUBCHEM_EFFECTIVE_ROTOR_COUNT>
3.2

> <PUBCHEM_PHARMACOPHORE_FEATURES>
11
1 1 acceptor
1 2 acceptor
1 3 acceptor
1 3 donor
1 4 acceptor
1 4 donor
1 5 acceptor
1 5 donor
1 6 acceptor
1 6 donor
6 1 2 7 8 9 10 rings

> <PUBCHEM_HEAVY_ATOM_COUNT>
12

> <PUBCHEM_ATOM_DEF_STEREO_COUNT>
2

> <PUBCHEM_ATOM_UDEF_STEREO_COUNT>
0

> <PUBCHEM_BOND_DEF_STEREO_COUNT>
0

> <PUBCHEM_BOND_UDEF_STEREO_COUNT>
0

> <PUBCHEM_ISOTOPIC_ATOM_COUNT>
0

> <PUBCHEM_COMPONENT_COUNT>
1

> <PUBCHEM_CACTVS_TAUTO_COUNT>
1

> <PUBCHEM_CONFORMER_ID>
00298F2B00000001

> <PUBCHEM_MMFF94_ENERGY>
28.7738

> <PUBCHEM_FEATURE_SELFOVERLAP>
55.931

> <PUBCHEM_SHAPE_FINGERPRINT>
10219947 1 18186527604576706229
10857977 72 18113901606367203481
11062470 55 14045744802744084514
12932764 1 18202843274795842702
14325111 11 18186809113939548469
15775835 57 18273497874816943758
16945 1 18412537708623691781
18511873 20 18060707181933063993
207724 885 17968104139525408876
21040471 1 18334578000729632323
23235685 24 18113900472105505391
23402655 69 18189600667622537709
2748010 2 17972605660209201613
29004967 10 18040156223173043689
369184 2 17346599711388467202
5084963 1 18411425024426275025
528886 8 18260269654786670874

> <PUBCHEM_SHAPE_MULTIPOLES>
211.74
4.72
1.17
0.99
0.03
0
0.01
0
-0.03
0
0
0
0
0

> <PUBCHEM_SHAPE_SELFOVERLAP>
423.88

> <PUBCHEM_SHAPE_VOLUME>
123

> <PUBCHEM_COORDINATE_TYPE>
2
5
10

$$$$
