2733294
  -OEChem-11232109083D

 24 23  0     0  0  0  0  0  0999 V2000
   -1.7648    0.2954    0.2951 O   0  0  0  0  0  0  0  0  0  0  0  0
   -3.6383   -0.7283   -0.5876 O   0  0  0  0  0  0  0  0  0  0  0  0
    2.8737   -0.5298    0.2637 C   0  0  0  0  0  0  0  0  0  0  0  0
    3.5342    0.6284   -0.4844 C   0  0  0  0  0  0  0  0  0  0  0  0
    1.4688   -0.7558   -0.2145 C   0  0  0  0  0  0  0  0  0  0  0  0
    4.9669    0.8437   -0.0220 C   0  0  0  0  0  0  0  0  0  0  0  0
    0.3875   -0.6552    0.5725 C   0  0  0  0  0  0  0  0  0  0  0  0
   -1.0088   -0.8911    0.0973 C   0  0  0  0  0  0  0  0  0  0  0  0
   -3.0751    0.2392   -0.0937 C   0  0  0  0  0  0  0  0  0  0  0  0
   -3.7440    1.5535    0.1736 C   0  0  0  0  0  0  0  0  0  0  0  0
    3.4464   -1.4509    0.1017 H   0  0  0  0  0  0  0  0  0  0  0  0
    2.8914   -0.3302    1.3421 H   0  0  0  0  0  0  0  0  0  0  0  0
    2.9633    1.5516   -0.3261 H   0  0  0  0  0  0  0  0  0  0  0  0
    3.5329    0.4305   -1.5633 H   0  0  0  0  0  0  0  0  0  0  0  0
    1.3454   -1.0267   -1.2602 H   0  0  0  0  0  0  0  0  0  0  0  0
    5.4207    1.6758   -0.5692 H   0  0  0  0  0  0  0  0  0  0  0  0
    5.0030    1.0798    1.0463 H   0  0  0  0  0  0  0  0  0  0  0  0
    5.5742   -0.0500   -0.1978 H   0  0  0  0  0  0  0  0  0  0  0  0
    0.5109   -0.3919    1.6200 H   0  0  0  0  0  0  0  0  0  0  0  0
   -1.0277   -1.1655   -0.9641 H   0  0  0  0  0  0  0  0  0  0  0  0
   -1.4491   -1.7076    0.6812 H   0  0  0  0  0  0  0  0  0  0  0  0
   -3.2491    2.3436   -0.3965 H   0  0  0  0  0  0  0  0  0  0  0  0
   -3.7137    1.7736    1.2436 H   0  0  0  0  0  0  0  0  0  0  0  0
   -4.7900    1.4991   -0.1416 H   0  0  0  0  0  0  0  0  0  0  0  0
  1  8  1  0  0  0  0
  1  9  1  0  0  0  0
  2  9  2  0  0  0  0
  3  4  1  0  0  0  0
  3  5  1  0  0  0  0
  3 11  1  0  0  0  0
  3 12  1  0  0  0  0
  4  6  1  0  0  0  0
  4 13  1  0  0  0  0
  4 14  1  0  0  0  0
  5  7  2  0  0  0  0
  5 15  1  0  0  0  0
  6 16  1  0  0  0  0
  6 17  1  0  0  0  0
  6 18  1  0  0  0  0
  7  8  1  0  0  0  0
  7 19  1  0  0  0  0
  8 20  1  0  0  0  0
  8 21  1  0  0  0  0
  9 10  1  0  0  0  0
 10 22  1  0  0  0  0
 10 23  1  0  0  0  0
 10 24  1  0  0  0  0
M  END
> <PUBCHEM_COMPOUND_CID>
2733294

> <PUBCHEM_CONFORMER_RMSD>
0.6

> <PUBCHEM_CONFORMER_DIVERSEORDER>
1
39
116
2
71
111
67
47
108
18
45
115
54
62
105
66
46
85
80
118
41
74
117
83
86
20
44
107
56
114
38
75
22
89
58
84
42
81
43
26
95
7
59
93
101
109
65
97
69
35
51
78
17
82
13
33
64
63
87
60
112
49
52
5
68
36
29
40
113
72
53
91
61
32
96
104
106
6
98
19
50
10
28
12
9
73
77
48
23
31
92
90
15
24
100
57
76
3
8
16
88
55
27
25
103
37
4
34
30
79
11
102
110
94
14
70
21
99

> <PUBCHEM_MMFF94_PARTIAL_CHARGES>
10
1 -0.43
10 0.06
15 0.15
19 0.15
2 -0.57
3 0.14
5 -0.29
7 -0.29
8 0.42
9 0.66

> <PUBCHEM_EFFECTIVE_ROTOR_COUNT>
5

> <PUBCHEM_PHARMACOPHORE_FEATURES>
2
1 2 acceptor
1 6 hydrophobe

> <PUBCHEM_HEAVY_ATOM_COUNT>
10

> <PUBCHEM_ATOM_DEF_STEREO_COUNT>
0

> <PUBCHEM_ATOM_UDEF_STEREO_COUNT>
0

> <PUBCHEM_BOND_DEF_STEREO_COUNT>
1

> <PUBCHEM_BOND_UDEF_STEREO_COUNT>
0

> <PUBCHEM_ISOTOPIC_ATOM_COUNT>
0

> <PUBCHEM_COMPONENT_COUNT>
1

> <PUBCHEM_CACTVS_TAUTO_COUNT>
1

> <PUBCHEM_CONFORMER_ID>
0029B4EE00000001

> <PUBCHEM_MMFF94_ENERGY>
2.0738

> <PUBCHEM_FEATURE_SELFOVERLAP>
10.148

> <PUBCHEM_SHAPE_FINGERPRINT>
11062470 55 18335421270492857634
114248 4 17132114675745044628
124424 183 12035442857145320551
12932764 1 16988267716819390295
14123260 362 18059307465213907969
14252887 29 13190333548802474080
14325111 11 18410573950987196963
14897335 6 18334575759094619226
170605 34 18261111850871785162
177051 138 9223226343232662768
18186145 218 17967535623289344046
20645477 70 17060072415036127150
20828058 44 10881397638622031556
20871999 31 17632003222319164335
21119208 17 16702584926273124572
21293036 1 16988846098711417570
22485316 2 10231757773308999262
23402539 116 18272364265939690180
23402655 69 18131070398556487068
23500284 214 18040724657557050673
42 15 10809340040426169476

> <PUBCHEM_SHAPE_MULTIPOLES>
194.06
9.47
1.24
0.71
3.43
0.27
0
4.16
-0.76
-0.47
0.03
0.01
-0.03
-0.37

> <PUBCHEM_SHAPE_SELFOVERLAP>
354.495

> <PUBCHEM_SHAPE_VOLUME>
123.6

> <PUBCHEM_COORDINATE_TYPE>
2
5
10

$$$$
