2734864
  -OEChem-11232109163D

 22 22  0     1  0  0  0  0  0999 V2000
    1.7457   -1.2729    0.8646 O   0  0  0  0  0  0  0  0  0  0  0  0
    1.3457    0.0467    0.4672 C   0  0  1  0  0  0  0  0  0  0  0  0
    2.2046    0.4688   -0.7435 C   0  0  0  0  0  0  0  0  0  0  0  0
   -0.1240    0.0457    0.2126 C   0  0  0  0  0  0  0  0  0  0  0  0
    3.6948    0.4901   -0.4373 C   0  0  0  0  0  0  0  0  0  0  0  0
   -0.8740    1.1972    0.4511 C   0  0  0  0  0  0  0  0  0  0  0  0
   -0.7484   -1.1070   -0.2637 C   0  0  0  0  0  0  0  0  0  0  0  0
   -2.2485    1.1961    0.2135 C   0  0  0  0  0  0  0  0  0  0  0  0
   -2.1229   -1.1082   -0.5016 C   0  0  0  0  0  0  0  0  0  0  0  0
   -2.8729    0.0434   -0.2629 C   0  0  0  0  0  0  0  0  0  0  0  0
    1.5737    0.7042    1.3156 H   0  0  0  0  0  0  0  0  0  0  0  0
    2.0366   -0.2272   -1.5751 H   0  0  0  0  0  0  0  0  0  0  0  0
    1.8944    1.4627   -1.0879 H   0  0  0  0  0  0  0  0  0  0  0  0
    3.9141    1.1754    0.3875 H   0  0  0  0  0  0  0  0  0  0  0  0
    4.2555    0.8256   -1.3154 H   0  0  0  0  0  0  0  0  0  0  0  0
    4.0608   -0.5047   -0.1654 H   0  0  0  0  0  0  0  0  0  0  0  0
   -0.3989    2.1022    0.8205 H   0  0  0  0  0  0  0  0  0  0  0  0
   -0.1876   -2.0138   -0.4730 H   0  0  0  0  0  0  0  0  0  0  0  0
   -2.8325    2.0929    0.3986 H   0  0  0  0  0  0  0  0  0  0  0  0
   -2.6088   -2.0044   -0.8759 H   0  0  0  0  0  0  0  0  0  0  0  0
    1.2531   -1.5016    1.6718 H   0  0  0  0  0  0  0  0  0  0  0  0
   -3.9429    0.0429   -0.4492 H   0  0  0  0  0  0  0  0  0  0  0  0
  1  2  1  0  0  0  0
  1 21  1  0  0  0  0
  2  3  1  0  0  0  0
  2  4  1  0  0  0  0
  2 11  1  0  0  0  0
  3  5  1  0  0  0  0
  3 12  1  0  0  0  0
  3 13  1  0  0  0  0
  4  6  2  0  0  0  0
  4  7  1  0  0  0  0
  5 14  1  0  0  0  0
  5 15  1  0  0  0  0
  5 16  1  0  0  0  0
  6  8  1  0  0  0  0
  6 17  1  0  0  0  0
  7  9  2  0  0  0  0
  7 18  1  0  0  0  0
  8 10  2  0  0  0  0
  8 19  1  0  0  0  0
  9 10  1  0  0  0  0
  9 20  1  0  0  0  0
 10 22  1  0  0  0  0
M  END
> <PUBCHEM_COMPOUND_CID>
2734864

> <PUBCHEM_CONFORMER_RMSD>
0.4

> <PUBCHEM_CONFORMER_DIVERSEORDER>
3
2
7
1
4
6
5

> <PUBCHEM_MMFF94_PARTIAL_CHARGES>
14
1 -0.68
10 -0.15
17 0.15
18 0.15
19 0.15
2 0.42
20 0.15
21 0.4
22 0.15
4 -0.14
6 -0.15
7 -0.15
8 -0.15
9 -0.15

> <PUBCHEM_EFFECTIVE_ROTOR_COUNT>
2

> <PUBCHEM_PHARMACOPHORE_FEATURES>
4
1 1 acceptor
1 1 donor
1 5 hydrophobe
6 4 6 7 8 9 10 rings

> <PUBCHEM_HEAVY_ATOM_COUNT>
10

> <PUBCHEM_ATOM_DEF_STEREO_COUNT>
1

> <PUBCHEM_ATOM_UDEF_STEREO_COUNT>
0

> <PUBCHEM_BOND_DEF_STEREO_COUNT>
0

> <PUBCHEM_BOND_UDEF_STEREO_COUNT>
0

> <PUBCHEM_ISOTOPIC_ATOM_COUNT>
0

> <PUBCHEM_COMPONENT_COUNT>
1

> <PUBCHEM_CACTVS_TAUTO_COUNT>
1

> <PUBCHEM_CONFORMER_ID>
0029BB1000000003

> <PUBCHEM_MMFF94_ENERGY>
22.4283

> <PUBCHEM_FEATURE_SELFOVERLAP>
20.297

> <PUBCHEM_SHAPE_FINGERPRINT>
12716758 59 18202005429966708726
12897270 3 18342458174822446900
12932764 1 18342734117770543121
13024252 1 17967818279619100155
14128692 85 18199467855972149885
14325111 11 18411703157965928068
15310529 11 17894345553875984041
15775835 57 18334862679651959348
16945 1 18201429277478874953
20201158 50 17203898452543060036
20645464 45 17059473214909750762
21040471 1 18057038017447772057
21293036 1 18343300387949975021
23235685 24 18130790023223247037
23552423 10 18265327498627132589
2748010 2 17910938464413451407
29004967 10 16081370730524745329
3248919 1 17894342280831362378
369184 2 13695583377638178197
5084963 1 18189887630691401547
528716 315 18340778133918949748
8030462 33 18410844473718012591

> <PUBCHEM_SHAPE_MULTIPOLES>
199.93
4.89
1.32
0.83
2.91
0.05
-0.01
-0.56
0.97
-0.55
-0.1
0.25
0.06
-0.46

> <PUBCHEM_SHAPE_SELFOVERLAP>
404.004

> <PUBCHEM_SHAPE_VOLUME>
117.6

> <PUBCHEM_COORDINATE_TYPE>
2
5
10

$$$$
