27440
  -OEChem-11232109273D

 17 17  0     0  0  0  0  0  0999 V2000
   -0.2078    1.6806    0.0079 S   0  0  0  0  0  0  0  0  0  0  0  0
    0.2832   -0.8470    0.2371 N   0  0  0  0  0  0  0  0  0  0  0  0
   -2.0947   -0.2512    0.5638 C   0  0  0  0  0  0  0  0  0  0  0  0
   -0.6738    0.0528    0.2872 C   0  0  0  0  0  0  0  0  0  0  0  0
    1.4781   -0.2128   -0.0422 C   0  0  0  0  0  0  0  0  0  0  0  0
   -2.8969   -0.5436   -0.7074 C   0  0  0  0  0  0  0  0  0  0  0  0
    1.4116    1.1557   -0.1999 C   0  0  0  0  0  0  0  0  0  0  0  0
    2.7003   -1.0344   -0.1465 C   0  0  0  0  0  0  0  0  0  0  0  0
   -2.1489   -1.1290    1.2194 H   0  0  0  0  0  0  0  0  0  0  0  0
   -2.5748    0.5680    1.1125 H   0  0  0  0  0  0  0  0  0  0  0  0
   -2.9087    0.3234   -1.3761 H   0  0  0  0  0  0  0  0  0  0  0  0
   -3.9317   -0.7921   -0.4521 H   0  0  0  0  0  0  0  0  0  0  0  0
   -2.4672   -1.3879   -1.2570 H   0  0  0  0  0  0  0  0  0  0  0  0
    2.2078    1.8528   -0.4196 H   0  0  0  0  0  0  0  0  0  0  0  0
    2.5042   -1.9441   -0.7228 H   0  0  0  0  0  0  0  0  0  0  0  0
    3.5101   -0.4905   -0.6434 H   0  0  0  0  0  0  0  0  0  0  0  0
    3.0457   -1.3270    0.8499 H   0  0  0  0  0  0  0  0  0  0  0  0
  1  4  1  0  0  0  0
  1  7  1  0  0  0  0
  2  4  2  0  0  0  0
  2  5  1  0  0  0  0
  3  4  1  0  0  0  0
  3  6  1  0  0  0  0
  3  9  1  0  0  0  0
  3 10  1  0  0  0  0
  5  7  2  0  0  0  0
  5  8  1  0  0  0  0
  6 11  1  0  0  0  0
  6 12  1  0  0  0  0
  6 13  1  0  0  0  0
  7 14  1  0  0  0  0
  8 15  1  0  0  0  0
  8 16  1  0  0  0  0
  8 17  1  0  0  0  0
M  END
> <PUBCHEM_COMPOUND_CID>
27440

> <PUBCHEM_CONFORMER_RMSD>
0.4

> <PUBCHEM_CONFORMER_DIVERSEORDER>
1
2
4
3

> <PUBCHEM_MMFF94_PARTIAL_CHARGES>
8
1 -0.08
14 0.15
2 -0.57
3 0.18
4 0.2
5 0.05
7 -0.11
8 0.18

> <PUBCHEM_EFFECTIVE_ROTOR_COUNT>
1

> <PUBCHEM_PHARMACOPHORE_FEATURES>
3
1 2 acceptor
1 6 hydrophobe
5 1 2 4 5 7 rings

> <PUBCHEM_HEAVY_ATOM_COUNT>
8

> <PUBCHEM_ATOM_DEF_STEREO_COUNT>
0

> <PUBCHEM_ATOM_UDEF_STEREO_COUNT>
0

> <PUBCHEM_BOND_DEF_STEREO_COUNT>
0

> <PUBCHEM_BOND_UDEF_STEREO_COUNT>
0

> <PUBCHEM_ISOTOPIC_ATOM_COUNT>
0

> <PUBCHEM_COMPONENT_COUNT>
1

> <PUBCHEM_CACTVS_TAUTO_COUNT>
2

> <PUBCHEM_CONFORMER_ID>
00006B3000000001

> <PUBCHEM_MMFF94_ENERGY>
2.472

> <PUBCHEM_FEATURE_SELFOVERLAP>
15.223

> <PUBCHEM_SHAPE_FINGERPRINT>
12932741 1 17603870065179987283
14128692 85 18343866627610857694
14390081 3 11746944204097918967
20653085 51 14201692904824859486
21040471 1 17904487646498852808
23552423 10 17971487195371140534
29004967 10 18335707177591007385
5084963 1 18272652333189968784

> <PUBCHEM_SHAPE_MULTIPOLES>
163.5
3.74
1.46
0.74
0.9
0.6
0.02
-1.61
0.58
-0.42
0.06
0.26
-0.03
-0.11

> <PUBCHEM_SHAPE_SELFOVERLAP>
312.266

> <PUBCHEM_SHAPE_VOLUME>
102.8

> <PUBCHEM_COORDINATE_TYPE>
2
5
10

$$$$
