27941
  -OEChem-11232108593D

 32 32  0     0  0  0  0  0  0999 V2000
    3.7294    0.0915    0.8141 O   0  0  0  0  0  0  0  0  0  0  0  0
   -0.1165   -0.0687   -0.6285 C   0  0  0  0  0  0  0  0  0  0  0  0
   -1.6198   -0.0602   -0.3574 C   0  0  0  0  0  0  0  0  0  0  0  0
    0.5261    1.2418   -0.1512 C   0  0  0  0  0  0  0  0  0  0  0  0
    0.5503   -1.2673    0.0621 C   0  0  0  0  0  0  0  0  0  0  0  0
   -1.9254    0.1238    1.1554 C   0  0  0  0  0  0  0  0  0  0  0  0
    2.0279    1.2608   -0.4047 C   0  0  0  0  0  0  0  0  0  0  0  0
    2.0527   -1.3000   -0.1862 C   0  0  0  0  0  0  0  0  0  0  0  0
   -2.2572    1.1244   -1.1162 C   0  0  0  0  0  0  0  0  0  0  0  0
   -2.2474   -1.3642   -0.8872 C   0  0  0  0  0  0  0  0  0  0  0  0
    2.6816    0.0266    0.1731 C   0  0  0  0  0  0  0  0  0  0  0  0
   -3.4018    0.1916    1.5266 C   0  0  0  0  0  0  0  0  0  0  0  0
    0.0588   -0.1600   -1.7101 H   0  0  0  0  0  0  0  0  0  0  0  0
    0.3928    1.3859    0.9252 H   0  0  0  0  0  0  0  0  0  0  0  0
    0.0995    2.1130   -0.6569 H   0  0  0  0  0  0  0  0  0  0  0  0
    0.1407   -2.2176   -0.2933 H   0  0  0  0  0  0  0  0  0  0  0  0
    0.4034   -1.2326    1.1465 H   0  0  0  0  0  0  0  0  0  0  0  0
   -1.5002   -0.7012    1.7359 H   0  0  0  0  0  0  0  0  0  0  0  0
   -1.4814    1.0450    1.5432 H   0  0  0  0  0  0  0  0  0  0  0  0
    2.4732    2.1500    0.0542 H   0  0  0  0  0  0  0  0  0  0  0  0
    2.2430    1.2882   -1.4784 H   0  0  0  0  0  0  0  0  0  0  0  0
    2.2706   -1.5049   -1.2401 H   0  0  0  0  0  0  0  0  0  0  0  0
    2.5136   -2.0898    0.4162 H   0  0  0  0  0  0  0  0  0  0  0  0
   -2.0528    2.0892   -0.6405 H   0  0  0  0  0  0  0  0  0  0  0  0
   -3.3478    1.0278   -1.1708 H   0  0  0  0  0  0  0  0  0  0  0  0
   -1.8977    1.1711   -2.1508 H   0  0  0  0  0  0  0  0  0  0  0  0
   -2.0270   -2.2207   -0.2419 H   0  0  0  0  0  0  0  0  0  0  0  0
   -3.3393   -1.2910   -0.9447 H   0  0  0  0  0  0  0  0  0  0  0  0
   -1.8931   -1.5944   -1.8985 H   0  0  0  0  0  0  0  0  0  0  0  0
   -3.9362   -0.7160    1.2322 H   0  0  0  0  0  0  0  0  0  0  0  0
   -3.5052    0.2927    2.6126 H   0  0  0  0  0  0  0  0  0  0  0  0
   -3.8982    1.0540    1.0731 H   0  0  0  0  0  0  0  0  0  0  0  0
  1 11  2  0  0  0  0
  2  3  1  0  0  0  0
  2  4  1  0  0  0  0
  2  5  1  0  0  0  0
  2 13  1  0  0  0  0
  3  6  1  0  0  0  0
  3  9  1  0  0  0  0
  3 10  1  0  0  0  0
  4  7  1  0  0  0  0
  4 14  1  0  0  0  0
  4 15  1  0  0  0  0
  5  8  1  0  0  0  0
  5 16  1  0  0  0  0
  5 17  1  0  0  0  0
  6 12  1  0  0  0  0
  6 18  1  0  0  0  0
  6 19  1  0  0  0  0
  7 11  1  0  0  0  0
  7 20  1  0  0  0  0
  7 21  1  0  0  0  0
  8 11  1  0  0  0  0
  8 22  1  0  0  0  0
  8 23  1  0  0  0  0
  9 24  1  0  0  0  0
  9 25  1  0  0  0  0
  9 26  1  0  0  0  0
 10 27  1  0  0  0  0
 10 28  1  0  0  0  0
 10 29  1  0  0  0  0
 12 30  1  0  0  0  0
 12 31  1  0  0  0  0
 12 32  1  0  0  0  0
M  END
> <PUBCHEM_COMPOUND_CID>
27941

> <PUBCHEM_CONFORMER_RMSD>
0.6

> <PUBCHEM_CONFORMER_DIVERSEORDER>
3
4
1
5
2

> <PUBCHEM_MMFF94_PARTIAL_CHARGES>
4
1 -0.57
11 0.45
7 0.06
8 0.06

> <PUBCHEM_EFFECTIVE_ROTOR_COUNT>
3

> <PUBCHEM_PHARMACOPHORE_FEATURES>
4
1 1 acceptor
1 12 hydrophobe
3 3 9 10 hydrophobe
6 2 4 5 7 8 11 rings

> <PUBCHEM_HEAVY_ATOM_COUNT>
12

> <PUBCHEM_ATOM_DEF_STEREO_COUNT>
0

> <PUBCHEM_ATOM_UDEF_STEREO_COUNT>
0

> <PUBCHEM_BOND_DEF_STEREO_COUNT>
0

> <PUBCHEM_BOND_UDEF_STEREO_COUNT>
0

> <PUBCHEM_ISOTOPIC_ATOM_COUNT>
0

> <PUBCHEM_COMPONENT_COUNT>
1

> <PUBCHEM_CACTVS_TAUTO_COUNT>
2

> <PUBCHEM_CONFORMER_ID>
00006D2500000003

> <PUBCHEM_MMFF94_ENERGY>
28.9053

> <PUBCHEM_FEATURE_SELFOVERLAP>
20.304

> <PUBCHEM_SHAPE_FINGERPRINT>
10857977 72 17458636609264444387
11471102 22 18187373129160871496
12251169 10 18341342153514413027
12382932 28 18272366464646356562
12423570 1 15604524280468282431
124424 183 17532071848511960572
12696612 119 18335994133014650396
12932764 1 18408887334488548758
13024252 1 17022615365096753063
13296908 3 18187929417678272606
15775835 57 17489594441281038408
16945 1 18410576175737785660
17844478 74 17894923918393294621
18186145 218 18131070459203039368
20201158 50 18113610153886155758
20711983 171 15769774632934689776
20715346 28 18261959531123078079
21061003 4 18334016077357966052
23236772 104 18060697312335717987
23402539 116 16443608143953357431
23557571 272 14620512375802200569
2748010 2 18049438145784406660
276578 36 16772415949330507939
29004967 10 18187367601638214056
3248919 1 17346309376063199078
369184 2 18412259532387612391
5084963 1 18269263724263052030
63268167 104 18342170051278482018
8030462 33 16845280623098921783

> <PUBCHEM_SHAPE_MULTIPOLES>
241.09
5.22
1.43
1.2
1.08
0.11
-0.22
-0.18
-1.65
0.16
0.34
-1.04
-0.08
-0.13

> <PUBCHEM_SHAPE_SELFOVERLAP>
473.598

> <PUBCHEM_SHAPE_VOLUME>
144.6

> <PUBCHEM_COORDINATE_TYPE>
2
5
10

$$$$
