281254
  -OEChem-11232109023D

 27 27  0     0  0  0  0  0  0999 V2000
    4.4014   -0.0537   -0.4577 O   0  0  0  0  0  0  0  0  0  0  0  0
    3.0636    0.0747    1.4167 O   0  0  0  0  0  0  0  0  0  0  0  0
    0.6969    0.0561   -0.1352 C   0  0  0  0  0  0  0  0  0  0  0  0
   -0.4719    0.0495   -1.1313 C   0  0  0  0  0  0  0  0  0  0  0  0
    2.0766    0.0660   -0.7970 C   0  0  0  0  0  0  0  0  0  0  0  0
   -1.8377    0.0136   -0.4955 C   0  0  0  0  0  0  0  0  0  0  0  0
   -2.4326   -1.2103   -0.2262 C   0  0  0  0  0  0  0  0  0  0  0  0
   -2.4788    1.2050   -0.1889 C   0  0  0  0  0  0  0  0  0  0  0  0
    3.2107    0.0408    0.2020 C   0  0  0  0  0  0  0  0  0  0  0  0
   -3.6968   -1.2437    0.3624 C   0  0  0  0  0  0  0  0  0  0  0  0
   -3.7430    1.1715    0.3999 C   0  0  0  0  0  0  0  0  0  0  0  0
   -4.3519   -0.0528    0.6755 C   0  0  0  0  0  0  0  0  0  0  0  0
    5.5634   -0.1170    0.3753 C   0  0  0  0  0  0  0  0  0  0  0  0
    0.6183   -0.8221    0.5193 H   0  0  0  0  0  0  0  0  0  0  0  0
    0.6059    0.9293    0.5242 H   0  0  0  0  0  0  0  0  0  0  0  0
   -0.4001    0.9326   -1.7800 H   0  0  0  0  0  0  0  0  0  0  0  0
   -0.3686   -0.8108   -1.8058 H   0  0  0  0  0  0  0  0  0  0  0  0
    2.1831    0.9680   -1.4099 H   0  0  0  0  0  0  0  0  0  0  0  0
    2.1727   -0.8145   -1.4423 H   0  0  0  0  0  0  0  0  0  0  0  0
   -1.9296   -2.1432   -0.4642 H   0  0  0  0  0  0  0  0  0  0  0  0
   -2.0120    2.1634   -0.3976 H   0  0  0  0  0  0  0  0  0  0  0  0
   -4.1707   -2.1970    0.5777 H   0  0  0  0  0  0  0  0  0  0  0  0
   -4.2529    2.0988    0.6443 H   0  0  0  0  0  0  0  0  0  0  0  0
   -5.3360   -0.0788    1.1342 H   0  0  0  0  0  0  0  0  0  0  0  0
    5.5235   -1.0042    1.0145 H   0  0  0  0  0  0  0  0  0  0  0  0
    5.6466    0.7917    0.9792 H   0  0  0  0  0  0  0  0  0  0  0  0
    6.4418   -0.1899   -0.2714 H   0  0  0  0  0  0  0  0  0  0  0  0
  1  9  1  0  0  0  0
  1 13  1  0  0  0  0
  2  9  2  0  0  0  0
  3  4  1  0  0  0  0
  3  5  1  0  0  0  0
  3 14  1  0  0  0  0
  3 15  1  0  0  0  0
  4  6  1  0  0  0  0
  4 16  1  0  0  0  0
  4 17  1  0  0  0  0
  5  9  1  0  0  0  0
  5 18  1  0  0  0  0
  5 19  1  0  0  0  0
  6  7  2  0  0  0  0
  6  8  1  0  0  0  0
  7 10  1  0  0  0  0
  7 20  1  0  0  0  0
  8 11  2  0  0  0  0
  8 21  1  0  0  0  0
 10 12  2  0  0  0  0
 10 22  1  0  0  0  0
 11 12  1  0  0  0  0
 11 23  1  0  0  0  0
 12 24  1  0  0  0  0
 13 25  1  0  0  0  0
 13 26  1  0  0  0  0
 13 27  1  0  0  0  0
M  END
> <PUBCHEM_COMPOUND_CID>
281254

> <PUBCHEM_CONFORMER_RMSD>
0.6

> <PUBCHEM_CONFORMER_DIVERSEORDER>
1
48
45
53
6
10
18
31
52
51
47
43
21
7
39
35
41
29
49
36
23
50
12
11
33
26
14
44
19
42
16
30
9
22
24
17
46
40
2
20
13
34
28
38
32
27
25
37
15
4
8
3
5

> <PUBCHEM_MMFF94_PARTIAL_CHARGES>
17
1 -0.43
10 -0.15
11 -0.15
12 -0.15
13 0.28
2 -0.57
20 0.15
21 0.15
22 0.15
23 0.15
24 0.15
4 0.14
5 0.06
6 -0.14
7 -0.15
8 -0.15
9 0.66

> <PUBCHEM_EFFECTIVE_ROTOR_COUNT>
5

> <PUBCHEM_PHARMACOPHORE_FEATURES>
2
1 2 acceptor
6 6 7 8 10 11 12 rings

> <PUBCHEM_HEAVY_ATOM_COUNT>
13

> <PUBCHEM_ATOM_DEF_STEREO_COUNT>
0

> <PUBCHEM_ATOM_UDEF_STEREO_COUNT>
0

> <PUBCHEM_BOND_DEF_STEREO_COUNT>
0

> <PUBCHEM_BOND_UDEF_STEREO_COUNT>
0

> <PUBCHEM_ISOTOPIC_ATOM_COUNT>
0

> <PUBCHEM_COMPONENT_COUNT>
1

> <PUBCHEM_CACTVS_TAUTO_COUNT>
1

> <PUBCHEM_CONFORMER_ID>
00044AA600000001

> <PUBCHEM_MMFF94_ENERGY>
23.5677

> <PUBCHEM_FEATURE_SELFOVERLAP>
10.148

> <PUBCHEM_SHAPE_FINGERPRINT>
10680689 15 17775564255901585679
114248 4 11386369252946758998
12251169 10 18408606967745295325
12507557 5 15769770286274967986
13214271 11 17918275351034581765
13675066 3 17917992784935542334
14123238 8 16008751312273705084
1420 363 15140682467118626512
14252887 29 17530965748789526266
15375462 189 17458059361486376464
17834072 33 17968101958088256732
200 152 15502372335465003805
20279233 1 17560807627721677847
20432913 95 16298386846689224656
20645464 45 17775573039674149919
20645477 56 17418374692315116693
20645477 70 13695852711180330080
20828058 44 18408042913832336942
20871999 31 9007059033339815203
21119208 17 10375870770698326581
21650355 55 18337957887247792781
22485316 2 16153422848547923189
2297311 6 18341626901113973500
23402539 116 18113333120048034783
23402655 69 11815626254462417371
23403322 49 13045939101383352433
42 15 18409168801023102262
57265010 4 18411141337842015987
9971528 1 13326858829765768840

> <PUBCHEM_SHAPE_MULTIPOLES>
255.8
10.94
1.07
0.99
11.12
0.03
-0.04
0.45
-2.85
-1.41
-0.03
0.28
-0.02
-0.06

> <PUBCHEM_SHAPE_SELFOVERLAP>
513.438

> <PUBCHEM_SHAPE_VOLUME>
150.8

> <PUBCHEM_COORDINATE_TYPE>
2
5
10

$$$$
