2839751
  -OEChem-11232111213D

 42 42  0     1  0  0  0  0  0999 V2000
   -3.3772   -0.6248    0.1175 O   0  0  0  0  0  0  0  0  0  0  0  0
   -3.0038    1.5234   -0.7558 O   0  0  0  0  0  0  0  0  0  0  0  0
    4.0671    1.7735   -0.0360 O   0  0  0  0  0  0  0  0  0  0  0  0
   -0.4844   -1.2095    0.0266 C   0  0  1  0  0  0  0  0  0  0  0  0
    0.8926   -1.1650    0.7249 C   0  0  0  0  0  0  0  0  0  0  0  0
   -1.1119    0.1929   -0.0843 C   0  0  0  0  0  0  0  0  0  0  0  0
    1.9796   -0.3776   -0.0177 C   0  0  0  0  0  0  0  0  0  0  0  0
   -2.5040    0.1811   -0.6857 C   0  0  1  0  0  0  0  0  0  0  0  0
    3.2857   -0.3515    0.7909 C   0  0  0  0  0  0  0  0  0  0  0  0
    4.4453    0.4029    0.1090 C   0  0  0  0  0  0  0  0  0  0  0  0
   -0.4029   -1.9118   -1.3316 C   0  0  0  0  0  0  0  0  0  0  0  0
   -4.2815    0.3082    0.7158 C   0  0  1  0  0  0  0  0  0  0  0  0
   -4.3544    1.4168   -0.3062 C   0  0  0  0  0  0  0  0  0  0  0  0
    5.6884    0.3501    1.0035 C   0  0  0  0  0  0  0  0  0  0  0  0
    4.7745   -0.1582   -1.2760 C   0  0  0  0  0  0  0  0  0  0  0  0
   -5.6131   -0.3507    1.0051 C   0  0  0  0  0  0  0  0  0  0  0  0
   -1.1305   -1.8230    0.6690 H   0  0  0  0  0  0  0  0  0  0  0  0
    1.2418   -2.1941    0.8800 H   0  0  0  0  0  0  0  0  0  0  0  0
    0.7600   -0.7338    1.7258 H   0  0  0  0  0  0  0  0  0  0  0  0
   -0.4824    0.8569   -0.6877 H   0  0  0  0  0  0  0  0  0  0  0  0
   -1.1540    0.6424    0.9166 H   0  0  0  0  0  0  0  0  0  0  0  0
    2.1532   -0.8453   -0.9913 H   0  0  0  0  0  0  0  0  0  0  0  0
    1.6522    0.6509   -0.1970 H   0  0  0  0  0  0  0  0  0  0  0  0
   -2.5039   -0.2213   -1.7033 H   0  0  0  0  0  0  0  0  0  0  0  0
    3.0736    0.1166    1.7615 H   0  0  0  0  0  0  0  0  0  0  0  0
    3.5967   -1.3842    0.9955 H   0  0  0  0  0  0  0  0  0  0  0  0
    0.1735   -2.8402   -1.2554 H   0  0  0  0  0  0  0  0  0  0  0  0
    0.0724   -1.2770   -2.0864 H   0  0  0  0  0  0  0  0  0  0  0  0
   -1.3977   -2.1848   -1.6973 H   0  0  0  0  0  0  0  0  0  0  0  0
   -3.8206    0.6655    1.6446 H   0  0  0  0  0  0  0  0  0  0  0  0
   -4.9790    1.1533   -1.1672 H   0  0  0  0  0  0  0  0  0  0  0  0
   -4.6959    2.3679    0.1107 H   0  0  0  0  0  0  0  0  0  0  0  0
    5.4810    0.7806    1.9900 H   0  0  0  0  0  0  0  0  0  0  0  0
    6.0427   -0.6767    1.1413 H   0  0  0  0  0  0  0  0  0  0  0  0
    6.5029    0.9445    0.5737 H   0  0  0  0  0  0  0  0  0  0  0  0
    4.9796   -1.2327   -1.2377 H   0  0  0  0  0  0  0  0  0  0  0  0
    3.9635    0.0250   -1.9885 H   0  0  0  0  0  0  0  0  0  0  0  0
    5.6542    0.3444   -1.6952 H   0  0  0  0  0  0  0  0  0  0  0  0
   -6.0469   -0.7794    0.0951 H   0  0  0  0  0  0  0  0  0  0  0  0
   -5.4820   -1.1798    1.7084 H   0  0  0  0  0  0  0  0  0  0  0  0
   -6.3240    0.3628    1.4319 H   0  0  0  0  0  0  0  0  0  0  0  0
    3.8724    2.1281    0.8483 H   0  0  0  0  0  0  0  0  0  0  0  0
  1  8  1  0  0  0  0
  1 12  1  0  0  0  0
  2  8  1  0  0  0  0
  2 13  1  0  0  0  0
  3 10  1  0  0  0  0
  3 42  1  0  0  0  0
  4  5  1  0  0  0  0
  4  6  1  0  0  0  0
  4 11  1  0  0  0  0
  4 17  1  0  0  0  0
  5  7  1  0  0  0  0
  5 18  1  0  0  0  0
  5 19  1  0  0  0  0
  6  8  1  0  0  0  0
  6 20  1  0  0  0  0
  6 21  1  0  0  0  0
  7  9  1  0  0  0  0
  7 22  1  0  0  0  0
  7 23  1  0  0  0  0
  8 24  1  0  0  0  0
  9 10  1  0  0  0  0
  9 25  1  0  0  0  0
  9 26  1  0  0  0  0
 10 14  1  0  0  0  0
 10 15  1  0  0  0  0
 11 27  1  0  0  0  0
 11 28  1  0  0  0  0
 11 29  1  0  0  0  0
 12 13  1  0  0  0  0
 12 16  1  0  0  0  0
 12 30  1  0  0  0  0
 13 31  1  0  0  0  0
 13 32  1  0  0  0  0
 14 33  1  0  0  0  0
 14 34  1  0  0  0  0
 14 35  1  0  0  0  0
 15 36  1  0  0  0  0
 15 37  1  0  0  0  0
 15 38  1  0  0  0  0
 16 39  1  0  0  0  0
 16 40  1  0  0  0  0
 16 41  1  0  0  0  0
M  END
> <PUBCHEM_COMPOUND_CID>
2839751

> <PUBCHEM_CONFORMER_RMSD>
0.8

> <PUBCHEM_CONFORMER_DIVERSEORDER>
1
23
113
75
99
195
209
22
117
101
57
152
81
10
39
89
122
53
76
213
69
130
66
155
198
150
31
83
74
67
32
17
50
64
80
96
156
4
62
54
211
184
25
60
190
133
21
8
41
94
163
194
188
210
16
42
149
88
19
85
116
180
36
9
154
11
185
104
162
132
35
161
30
208
186
126
26
153
48
157
129
106
205
131
140
193
27
114
146
206
79
47
119
111
167
139
207
91
63
212
120
138
118
196
158
202
127
93
108
33
181
204
128
73
214
144
191
100
199
175
103
136
200
58
95
189
176
55
112
92
165
87
78
137
169
70
68
98
170
178
29
82
56
160
201
90
171
143
183
12
124
45
121
37
177
142
84
151
115
65
197
192
107
49
5
109
86
61
159
179
102
141
182
20
97
46
173
110
77
24
7
187
172
72
203
125
166
15
168
18
105
38
174
164
148
135
34
44
13
51
145
2
147
6
134
28
3
71
43
123
14
40
59
52

> <PUBCHEM_MMFF94_PARTIAL_CHARGES>
8
1 -0.56
10 0.28
12 0.28
13 0.28
2 -0.56
3 -0.68
42 0.4
8 0.56

> <PUBCHEM_EFFECTIVE_ROTOR_COUNT>
7

> <PUBCHEM_PHARMACOPHORE_FEATURES>
8
1 1 acceptor
1 11 hydrophobe
1 2 acceptor
1 3 acceptor
1 3 donor
3 10 14 15 hydrophobe
5 1 2 8 12 13 rings
5 4 5 6 7 9 hydrophobe

> <PUBCHEM_HEAVY_ATOM_COUNT>
16

> <PUBCHEM_ATOM_DEF_STEREO_COUNT>
0

> <PUBCHEM_ATOM_UDEF_STEREO_COUNT>
3

> <PUBCHEM_BOND_DEF_STEREO_COUNT>
0

> <PUBCHEM_BOND_UDEF_STEREO_COUNT>
0

> <PUBCHEM_ISOTOPIC_ATOM_COUNT>
0

> <PUBCHEM_COMPONENT_COUNT>
1

> <PUBCHEM_CACTVS_TAUTO_COUNT>
1

> <PUBCHEM_CONFORMER_ID>
002B54C700000001

> <PUBCHEM_MMFF94_ENERGY>
31.9406

> <PUBCHEM_FEATURE_SELFOVERLAP>
40.659

> <PUBCHEM_SHAPE_FINGERPRINT>
10354089 29 18113618989145521784
10366900 7 11819273330896224636
10447042 23 9295292716579616752
10465860 250 10737289043379218391
10803635 8 12607404369155124077
10922049 32 18413393124380889830
11045977 3 17313108578753768945
11796584 16 11095881557806306388
11858739 19 9079124349307091408
124424 183 8790879671262365395
12596602 18 15864075385662514144
12670545 2 13614528437438401556
12815109 37 10952050052699769482
12916748 109 18202286887869084488
13081056 2 18409731759513769036
13214271 11 18260827073534326149
13237642 15 17821452356807660809
14123238 8 17385726897856983113
14123255 52 18410849958602369654
14251752 14 14404915647972037048
14251764 18 17603580842841780698
14252887 29 13334734596874010650
14341114 328 17240489091239991080
14848160 23 11458426851110927192
15183329 4 12319462069550345291
15501527 16 18343579663961348448
15880784 105 14562532881628737344
17834072 33 16371014035031916846
17834072 8 11527947842170144715
17870717 6 10519989296259385153
1798214 20 10375870770888393108
18186145 218 16988267733803951091
18222031 100 13262401050881807698
19489759 90 8070035458361673023
20374829 77 11455888044550288491
204376 136 18272650134599697639
20645477 56 18201995569054041578
20645477 70 16559041480539641326
20671657 53 10159690335006127723
20871999 31 17417517137707111798
212847 35 18113336410620860660
21652331 79 18333447651215896844
22079108 93 17967533505738527243
22224240 67 18343868831847413899
22485316 2 10159692499837845616
22854114 59 16588022394490701634
23253445 4 13046233813686627014
23272321 79 18260831539577763597
23402539 116 17346591980753328444
23402655 69 16415476060803638182
23403322 49 9295285054115185373
23536379 177 14836406921318201995
23559900 14 17828754050345967851
2871803 45 10880004562138508196
2916195 48 18272361005964697088
300161 21 13398626156659737426
3004659 81 12103843467114126554
3009799 131 11746933226831540147
314173 85 12468637188166783711
32948 21 13110963110943181707
347723 3 15123513583696494302
351380 3 7925911495604432120
3545911 37 18413672409646680114
4047638 21 18272653446288241650
474229 33 18113338626433952979
5104073 3 17969504810350155321
5283173 99 8718284407169666515
54446538 1 18407476669607701832
59682541 35 18041850622358011945
633830 44 15984809446273109795
8988823 20 11170197613574143230
960060 61 14261633954424812192
9882013 296 15864068758643598750

> <PUBCHEM_SHAPE_MULTIPOLES>
311.66
13.38
1.49
1.13
2.92
0.07
0.09
-4.63
-2.48
-0.27
0.38
0.25
0.17
0.48

> <PUBCHEM_SHAPE_SELFOVERLAP>
599.44

> <PUBCHEM_SHAPE_VOLUME>
192

> <PUBCHEM_COORDINATE_TYPE>
2
5
10

$$$$
