28500
  -OEChem-11232108513D

 23 24  0     0  0  0  0  0  0999 V2000
   -1.0732   -1.1783   -0.1817 O   0  0  0  0  0  0  0  0  0  0  0  0
    0.4793   -2.8834    0.0145 O   0  0  0  0  0  0  0  0  0  0  0  0
    0.4344    0.5936   -0.0839 C   0  0  0  0  0  0  0  0  0  0  0  0
   -0.9495    0.2179   -0.2073 C   0  0  0  0  0  0  0  0  0  0  0  0
    1.1327   -0.5902    0.0152 C   0  0  0  0  0  0  0  0  0  0  0  0
   -2.0035    1.0297   -0.3308 C   0  0  0  0  0  0  0  0  0  0  0  0
   -3.4206    0.5535   -0.4546 C   0  0  0  0  0  0  0  0  0  0  0  0
    1.0988    1.8072   -0.0513 C   0  0  0  0  0  0  0  0  0  0  0  0
    0.1922   -1.7029   -0.0457 C   0  0  0  0  0  0  0  0  0  0  0  0
    2.5088   -0.6362    0.1499 C   0  0  0  0  0  0  0  0  0  0  0  0
    2.4911    1.7944    0.0841 C   0  0  0  0  0  0  0  0  0  0  0  0
    3.1915    0.5801    0.1840 C   0  0  0  0  0  0  0  0  0  0  0  0
   -4.0820    0.4147    0.9076 C   0  0  0  0  0  0  0  0  0  0  0  0
   -1.8600    2.1076   -0.3316 H   0  0  0  0  0  0  0  0  0  0  0  0
   -3.9815    1.2671   -1.0691 H   0  0  0  0  0  0  0  0  0  0  0  0
   -3.4642   -0.4068   -0.9817 H   0  0  0  0  0  0  0  0  0  0  0  0
    0.5680    2.7500   -0.1274 H   0  0  0  0  0  0  0  0  0  0  0  0
    3.0443   -1.5755    0.2268 H   0  0  0  0  0  0  0  0  0  0  0  0
    3.0382    2.7329    0.1126 H   0  0  0  0  0  0  0  0  0  0  0  0
    4.2729    0.5907    0.2887 H   0  0  0  0  0  0  0  0  0  0  0  0
   -5.1211    0.0906    0.7911 H   0  0  0  0  0  0  0  0  0  0  0  0
   -4.0841    1.3686    1.4459 H   0  0  0  0  0  0  0  0  0  0  0  0
   -3.5656   -0.3259    1.5278 H   0  0  0  0  0  0  0  0  0  0  0  0
  1  4  1  0  0  0  0
  1  9  1  0  0  0  0
  2  9  2  0  0  0  0
  3  4  1  0  0  0  0
  3  5  1  0  0  0  0
  3  8  2  0  0  0  0
  4  6  2  3  0  0  0
  5  9  1  0  0  0  0
  5 10  2  0  0  0  0
  6  7  1  0  0  0  0
  6 14  1  0  0  0  0
  7 13  1  0  0  0  0
  7 15  1  0  0  0  0
  7 16  1  0  0  0  0
  8 11  1  0  0  0  0
  8 17  1  0  0  0  0
 10 12  1  0  0  0  0
 10 18  1  0  0  0  0
 11 12  2  0  0  0  0
 11 19  1  0  0  0  0
 12 20  1  0  0  0  0
 13 21  1  0  0  0  0
 13 22  1  0  0  0  0
 13 23  1  0  0  0  0
M  END
> <PUBCHEM_COMPOUND_CID>
28500

> <PUBCHEM_CONFORMER_RMSD>
0.4

> <PUBCHEM_CONFORMER_DIVERSEORDER>
2
1

> <PUBCHEM_MMFF94_PARTIAL_CHARGES>
17
1 -0.23
10 -0.15
11 -0.15
12 -0.15
14 0.15
17 0.15
18 0.15
19 0.15
2 -0.57
20 0.15
3 0.03
4 0.05
5 0.09
6 -0.29
7 0.14
8 -0.15
9 0.63

> <PUBCHEM_EFFECTIVE_ROTOR_COUNT>
1.2

> <PUBCHEM_PHARMACOPHORE_FEATURES>
4
1 13 hydrophobe
1 2 acceptor
5 1 3 4 5 9 rings
6 3 5 8 10 11 12 rings

> <PUBCHEM_HEAVY_ATOM_COUNT>
13

> <PUBCHEM_ATOM_DEF_STEREO_COUNT>
0

> <PUBCHEM_ATOM_UDEF_STEREO_COUNT>
0

> <PUBCHEM_BOND_DEF_STEREO_COUNT>
0

> <PUBCHEM_BOND_UDEF_STEREO_COUNT>
1

> <PUBCHEM_ISOTOPIC_ATOM_COUNT>
0

> <PUBCHEM_COMPONENT_COUNT>
1

> <PUBCHEM_CACTVS_TAUTO_COUNT>
1

> <PUBCHEM_CONFORMER_ID>
00006F5400000002

> <PUBCHEM_MMFF94_ENERGY>
29.6121

> <PUBCHEM_FEATURE_SELFOVERLAP>
20.385

> <PUBCHEM_SHAPE_FINGERPRINT>
1 1 18410570660904935990
10219947 1 18335981995479347741
10465860 228 18127702530348584809
10608611 8 18261950726936383269
10967382 1 18410571773264405772
10980938 120 18410853222597978097
11471102 20 18338792321646423885
11471102 22 18261967258069989105
13380535 21 18264497354494882412
13380535 76 18411132575760780222
13380536 305 18410862061793738660
14251717 144 18411410696737031629
14325111 11 18410571816451734909
15219456 202 18188208694027360173
15309172 13 18409730681498070281
15502708 68 18410289186012575667
15775835 57 18412266176544082005
15906896 17 17985262130030426815
16945 1 18338790113674271196
17844478 74 18040153989922301965
18186145 218 18343865519546549981
193761 8 17761490691823791708
201361 129 18128548080491505209
20645477 70 18268137661854399271
21040471 1 18337948021359897220
21501502 16 18194395826076274940
21524375 3 18341888640578639831
2334 1 18194115441704694397
23402655 69 18342163446078132957
25 1 18411700976059218812
2748010 2 18337111279751614126
276578 36 18342744017728215081
3071541 250 17981334382575365118
528886 8 18411129251682829536
53812653 166 18341045298238891776
7364860 26 18270117885974065631
81228 2 17688295111856751083

> <PUBCHEM_SHAPE_MULTIPOLES>
255.8
5.4
2.15
0.71
4.3
1.17
0.05
-2.06
0.9
-1
-0.04
0.33
-0.07
0.02

> <PUBCHEM_SHAPE_SELFOVERLAP>
553.928

> <PUBCHEM_SHAPE_VOLUME>
142.2

> <PUBCHEM_COORDINATE_TYPE>
2
5
10

$$$$
