285097
  -OEChem-11232108423D

 33 33  0     1  0  0  0  0  0999 V2000
    2.5013    0.9171   -0.0100 O   0  0  0  0  0  0  0  0  0  0  0  0
    4.6612    0.5276   -0.6763 O   0  0  0  0  0  0  0  0  0  0  0  0
    1.3791    0.1086    0.3866 C   0  0  1  0  0  0  0  0  0  0  0  0
    0.0974    0.7639   -0.1177 C   0  0  0  0  0  0  0  0  0  0  0  0
    1.6366   -1.2311   -0.2850 C   0  0  0  0  0  0  0  0  0  0  0  0
   -1.1284   -0.0978    0.1843 C   0  0  0  0  0  0  0  0  0  0  0  0
    3.1456   -1.3235   -0.3024 C   0  0  0  0  0  0  0  0  0  0  0  0
    1.3639    0.0077    1.9138 C   0  0  0  0  0  0  0  0  0  0  0  0
   -2.4156    0.5784   -0.2934 C   0  0  0  0  0  0  0  0  0  0  0  0
    3.5517    0.1182   -0.3717 C   0  0  0  0  0  0  0  0  0  0  0  0
   -3.6446   -0.2687    0.0443 C   0  0  0  0  0  0  0  0  0  0  0  0
   -4.9628    0.3747   -0.3914 C   0  0  0  0  0  0  0  0  0  0  0  0
   -6.1853   -0.4750   -0.0811 C   0  0  0  0  0  0  0  0  0  0  0  0
    0.1707    0.9462   -1.1981 H   0  0  0  0  0  0  0  0  0  0  0  0
   -0.0154    1.7578    0.3349 H   0  0  0  0  0  0  0  0  0  0  0  0
    1.2788   -1.2227   -1.3228 H   0  0  0  0  0  0  0  0  0  0  0  0
    1.1693   -2.0817    0.2205 H   0  0  0  0  0  0  0  0  0  0  0  0
   -1.0414   -1.0755   -0.3029 H   0  0  0  0  0  0  0  0  0  0  0  0
   -1.2194   -0.2769    1.2605 H   0  0  0  0  0  0  0  0  0  0  0  0
    3.5026   -1.8745   -1.1755 H   0  0  0  0  0  0  0  0  0  0  0  0
    3.5386   -1.7640    0.6180 H   0  0  0  0  0  0  0  0  0  0  0  0
    2.3514   -0.2702    2.3003 H   0  0  0  0  0  0  0  0  0  0  0  0
    1.1289    0.9780    2.3659 H   0  0  0  0  0  0  0  0  0  0  0  0
    0.6477   -0.7326    2.2816 H   0  0  0  0  0  0  0  0  0  0  0  0
   -2.3680    0.7411   -1.3769 H   0  0  0  0  0  0  0  0  0  0  0  0
   -2.5119    1.5637    0.1785 H   0  0  0  0  0  0  0  0  0  0  0  0
   -3.6766   -0.4478    1.1263 H   0  0  0  0  0  0  0  0  0  0  0  0
   -3.5490   -1.2505   -0.4360 H   0  0  0  0  0  0  0  0  0  0  0  0
   -5.0724    1.3474    0.1027 H   0  0  0  0  0  0  0  0  0  0  0  0
   -4.9326    0.5683   -1.4703 H   0  0  0  0  0  0  0  0  0  0  0  0
   -7.0961    0.0330   -0.4130 H   0  0  0  0  0  0  0  0  0  0  0  0
   -6.2696   -0.6589    0.9947 H   0  0  0  0  0  0  0  0  0  0  0  0
   -6.1283   -1.4416   -0.5914 H   0  0  0  0  0  0  0  0  0  0  0  0
  1  3  1  0  0  0  0
  1 10  1  0  0  0  0
  2 10  2  0  0  0  0
  3  4  1  0  0  0  0
  3  5  1  0  0  0  0
  3  8  1  0  0  0  0
  4  6  1  0  0  0  0
  4 14  1  0  0  0  0
  4 15  1  0  0  0  0
  5  7  1  0  0  0  0
  5 16  1  0  0  0  0
  5 17  1  0  0  0  0
  6  9  1  0  0  0  0
  6 18  1  0  0  0  0
  6 19  1  0  0  0  0
  7 10  1  0  0  0  0
  7 20  1  0  0  0  0
  7 21  1  0  0  0  0
  8 22  1  0  0  0  0
  8 23  1  0  0  0  0
  8 24  1  0  0  0  0
  9 11  1  0  0  0  0
  9 25  1  0  0  0  0
  9 26  1  0  0  0  0
 11 12  1  0  0  0  0
 11 27  1  0  0  0  0
 11 28  1  0  0  0  0
 12 13  1  0  0  0  0
 12 29  1  0  0  0  0
 12 30  1  0  0  0  0
 13 31  1  0  0  0  0
 13 32  1  0  0  0  0
 13 33  1  0  0  0  0
M  END
> <PUBCHEM_COMPOUND_CID>
285097

> <PUBCHEM_CONFORMER_RMSD>
0.6

> <PUBCHEM_CONFORMER_DIVERSEORDER>
15
93
12
64
86
46
68
1
73
4
90
78
32
66
25
89
79
39
34
28
83
91
29
30
81
70
6
60
50
47
76
49
42
67
10
92
2
82
27
8
87
31
53
71
74
16
65
48
44
80
3
94
20
59
33
88
23
57
9
43
62
84
5
41
72
36
55
7
63
52
56
75
85
18
77
22
35
21
14
69
61
26
19
24
54
45
13
58
38
51
17
40
11
37

> <PUBCHEM_MMFF94_PARTIAL_CHARGES>
5
1 -0.43
10 0.66
2 -0.57
3 0.28
7 0.06

> <PUBCHEM_EFFECTIVE_ROTOR_COUNT>
5.8

> <PUBCHEM_PHARMACOPHORE_FEATURES>
4
1 13 hydrophobe
1 2 acceptor
5 1 3 5 7 10 rings
5 4 6 9 11 12 hydrophobe

> <PUBCHEM_HEAVY_ATOM_COUNT>
13

> <PUBCHEM_ATOM_DEF_STEREO_COUNT>
0

> <PUBCHEM_ATOM_UDEF_STEREO_COUNT>
1

> <PUBCHEM_BOND_DEF_STEREO_COUNT>
0

> <PUBCHEM_BOND_UDEF_STEREO_COUNT>
0

> <PUBCHEM_ISOTOPIC_ATOM_COUNT>
0

> <PUBCHEM_COMPONENT_COUNT>
1

> <PUBCHEM_CACTVS_TAUTO_COUNT>
2

> <PUBCHEM_CONFORMER_ID>
000459A90000000F

> <PUBCHEM_MMFF94_ENERGY>
12.3394

> <PUBCHEM_FEATURE_SELFOVERLAP>
20.297

> <PUBCHEM_SHAPE_FINGERPRINT>
11287383 113 17822016440722118605
114248 4 18040716970108851029
12616999 72 18411700967511664094
12932764 1 17346019109341206821
13675066 3 12463566283995244117
13922767 16 8502652601639333702
14123238 8 17821728343169536309
14251718 22 17967816072317198415
15242433 33 18341895195068206679
15477762 27 18412829058141646764
17834072 33 18411981394911792173
17834076 25 15936408948845109661
18522853 276 11602536524870969815
200 152 18131350800276462617
20279233 1 17240208724675865137
20645477 70 18338235959904186055
20724930 37 7997970171757496229
21054139 6 16298952086298338091
22485316 2 18411135836020714079
23402539 116 16805603711002627526
23402655 69 18411417289390602629
23532345 12 14045745928405402627
23557571 272 17313381188975996797
26918003 58 9439402432740329157
300161 21 15936401239922080287
3060560 45 15068629257768022042
351380 180 8862942767053166343
4047638 21 17458348541697518198
42 15 11600006552825781325
42788 4 18259704497599893589
465052 167 16630529548469801599
4990 188 18186803556494662011
522135 26 18202843244905209927

> <PUBCHEM_SHAPE_MULTIPOLES>
255.8
11.22
1.04
0.98
15.37
0.25
0.48
1.19
-2.13
-0.62
-0.05
-0.54
-0.13
0.1

> <PUBCHEM_SHAPE_SELFOVERLAP>
496.602

> <PUBCHEM_SHAPE_VOLUME>
157.2

> <PUBCHEM_COORDINATE_TYPE>
2
5
10

$$$$
