2867012
  -OEChem-11232108463D

 43 45  0     1  0  0  0  0  0999 V2000
    6.8567   -2.6404   -0.2284 F   0  0  0  0  0  0  0  0  0  0  0  0
    3.4188    2.5526    0.1471 O   0  0  0  0  0  0  0  0  0  0  0  0
   -7.1485   -1.5598    0.8703 O   0  5  0  0  0  0  0  0  0  0  0  0
   -7.4166   -0.3772   -0.9596 O   0  0  0  0  0  0  0  0  0  0  0  0
    1.6470    1.0317   -0.0006 N   0  0  0  0  0  0  0  0  0  0  0  0
   -1.1790    0.3810   -0.0661 N   0  0  3  0  0  0  0  0  0  0  0  0
   -6.6888   -0.8373   -0.0468 N   0  3  0  0  0  0  0  0  0  0  0  0
    0.6230    2.0868   -0.0005 C   0  0  1  0  0  0  0  0  0  0  0  0
   -0.6798    1.6189   -0.6704 C   0  0  0  0  0  0  0  0  0  0  0  0
    1.1753   -0.3527   -0.1157 C   0  0  0  0  0  0  0  0  0  0  0  0
   -0.2082   -0.5612    0.4941 C   0  0  0  0  0  0  0  0  0  0  0  0
    0.3761    2.6207    1.4159 C   0  0  0  0  0  0  0  0  0  0  0  0
   -2.5394    0.0804   -0.0612 C   0  0  0  0  0  0  0  0  0  0  0  0
    2.9982    1.4004    0.0507 C   0  0  0  0  0  0  0  0  0  0  0  0
    4.0125    0.3382   -0.0227 C   0  0  0  0  0  0  0  0  0  0  0  0
   -3.1119   -0.7291    0.9484 C   0  0  0  0  0  0  0  0  0  0  0  0
   -3.4068    0.5717   -1.0660 C   0  0  0  0  0  0  0  0  0  0  0  0
   -4.4739   -1.0305    0.9531 C   0  0  0  0  0  0  0  0  0  0  0  0
   -4.7687    0.2705   -1.0613 C   0  0  0  0  0  0  0  0  0  0  0  0
   -5.3024   -0.5305   -0.0517 C   0  0  0  0  0  0  0  0  0  0  0  0
    4.5081   -0.0609   -1.2607 C   0  0  0  0  0  0  0  0  0  0  0  0
    4.4714   -0.2622    1.1466 C   0  0  0  0  0  0  0  0  0  0  0  0
    5.4702   -1.0684   -1.3303 C   0  0  0  0  0  0  0  0  0  0  0  0
    5.4337   -1.2696    1.0771 C   0  0  0  0  0  0  0  0  0  0  0  0
    5.9332   -1.6728   -0.1614 C   0  0  0  0  0  0  0  0  0  0  0  0
    1.0170    2.9249   -0.5903 H   0  0  0  0  0  0  0  0  0  0  0  0
   -1.4198    2.4254   -0.5920 H   0  0  0  0  0  0  0  0  0  0  0  0
   -0.4984    1.4397   -1.7378 H   0  0  0  0  0  0  0  0  0  0  0  0
    1.8826   -1.0419    0.3526 H   0  0  0  0  0  0  0  0  0  0  0  0
    1.1545   -0.5857   -1.1876 H   0  0  0  0  0  0  0  0  0  0  0  0
   -0.5118   -1.5960    0.2921 H   0  0  0  0  0  0  0  0  0  0  0  0
   -0.1585   -0.4343    1.5819 H   0  0  0  0  0  0  0  0  0  0  0  0
    0.0180    1.8409    2.0944 H   0  0  0  0  0  0  0  0  0  0  0  0
    1.2974    3.0257    1.8477 H   0  0  0  0  0  0  0  0  0  0  0  0
   -0.3665    3.4253    1.4022 H   0  0  0  0  0  0  0  0  0  0  0  0
   -2.4990   -1.1258    1.7547 H   0  0  0  0  0  0  0  0  0  0  0  0
   -3.0237    1.1865   -1.8774 H   0  0  0  0  0  0  0  0  0  0  0  0
   -4.8554   -1.6553    1.7567 H   0  0  0  0  0  0  0  0  0  0  0  0
   -5.3833    0.6744   -1.8617 H   0  0  0  0  0  0  0  0  0  0  0  0
    4.1533    0.4035   -2.1770 H   0  0  0  0  0  0  0  0  0  0  0  0
    4.0879    0.0448    2.1159 H   0  0  0  0  0  0  0  0  0  0  0  0
    5.8589   -1.3828   -2.2943 H   0  0  0  0  0  0  0  0  0  0  0  0
    5.7939   -1.7405    1.9869 H   0  0  0  0  0  0  0  0  0  0  0  0
  1 25  1  0  0  0  0
  2 14  2  0  0  0  0
  3  7  1  0  0  0  0
  4  7  2  0  0  0  0
  5  8  1  0  0  0  0
  5 10  1  0  0  0  0
  5 14  1  0  0  0  0
  6  9  1  0  0  0  0
  6 11  1  0  0  0  0
  6 13  1  0  0  0  0
  7 20  1  0  0  0  0
  8  9  1  0  0  0  0
  8 12  1  0  0  0  0
  8 26  1  0  0  0  0
  9 27  1  0  0  0  0
  9 28  1  0  0  0  0
 10 11  1  0  0  0  0
 10 29  1  0  0  0  0
 10 30  1  0  0  0  0
 11 31  1  0  0  0  0
 11 32  1  0  0  0  0
 12 33  1  0  0  0  0
 12 34  1  0  0  0  0
 12 35  1  0  0  0  0
 13 16  2  0  0  0  0
 13 17  1  0  0  0  0
 14 15  1  0  0  0  0
 15 21  2  0  0  0  0
 15 22  1  0  0  0  0
 16 18  1  0  0  0  0
 16 36  1  0  0  0  0
 17 19  2  0  0  0  0
 17 37  1  0  0  0  0
 18 20  2  0  0  0  0
 18 38  1  0  0  0  0
 19 20  1  0  0  0  0
 19 39  1  0  0  0  0
 21 23  1  0  0  0  0
 21 40  1  0  0  0  0
 22 24  2  0  0  0  0
 22 41  1  0  0  0  0
 23 25  2  0  0  0  0
 23 42  1  0  0  0  0
 24 25  1  0  0  0  0
 24 43  1  0  0  0  0
M  CHG  2   3  -1   7   1
M  END
> <PUBCHEM_COMPOUND_CID>
2867012

> <PUBCHEM_CONFORMER_RMSD>
0.8

> <PUBCHEM_CONFORMER_DIVERSEORDER>
2
13
17
1
18
11
12
4
3
22
6
10
20
23
5
15
9
19
21
14
16
8
7

> <PUBCHEM_MMFF94_PARTIAL_CHARGES>
32
1 -0.19
10 0.3
11 0.37
13 0.1
14 0.54
15 0.09
16 -0.15
17 -0.15
18 -0.15
19 -0.15
2 -0.57
20 0.13
21 -0.15
22 -0.15
23 -0.15
24 -0.15
25 0.19
3 -0.52
36 0.15
37 0.15
38 0.15
39 0.15
4 -0.52
40 0.15
41 0.15
42 0.15
43 0.15
5 -0.66
6 -0.84
7 0.91
8 0.3
9 0.37

> <PUBCHEM_EFFECTIVE_ROTOR_COUNT>
5.2

> <PUBCHEM_PHARMACOPHORE_FEATURES>
8
1 2 acceptor
1 3 acceptor
1 3 anion
1 4 acceptor
1 6 cation
6 13 16 17 18 19 20 rings
6 15 21 22 23 24 25 rings
6 5 6 8 9 10 11 rings

> <PUBCHEM_HEAVY_ATOM_COUNT>
25

> <PUBCHEM_ATOM_DEF_STEREO_COUNT>
0

> <PUBCHEM_ATOM_UDEF_STEREO_COUNT>
1

> <PUBCHEM_BOND_DEF_STEREO_COUNT>
0

> <PUBCHEM_BOND_UDEF_STEREO_COUNT>
0

> <PUBCHEM_ISOTOPIC_ATOM_COUNT>
0

> <PUBCHEM_COMPONENT_COUNT>
1

> <PUBCHEM_CACTVS_TAUTO_COUNT>
1

> <PUBCHEM_CONFORMER_ID>
002BBF4400000002

> <PUBCHEM_MMFF94_ENERGY>
85.1817

> <PUBCHEM_FEATURE_SELFOVERLAP>
40.678

> <PUBCHEM_SHAPE_FINGERPRINT>
10 15 12031784773169133383
10673678 19 17462580712594293292
10753850 27 18411980243739120522
11524674 6 18059857290312190951
117089 54 18053954948717531270
11796584 16 17675924330623731042
11963148 33 18333724728178700139
12166972 35 18260271862532295253
12236239 1 17203333347096395329
125118 31 10663833970310690227
12516196 113 18202281416075649968
12596602 18 14764625317679096430
12616971 3 17917704738574759005
12760667 363 18341051826557312178
13533116 47 18202001070675435792
13668630 136 18407761425834016027
13685833 64 18412263938860573162
13782708 43 18336263548372241571
13862211 1 18341895177629828990
13914758 101 18131354082032644017
14123256 34 18411140216745015598
14347424 109 17988923387908077720
14528608 73 12540694833828474804
15183329 4 16660363653954511454
15188451 53 17775002358478986946
15510800 12 18341906147356722158
15575132 122 12973871603599564327
17349148 13 18060430118130352856
17844677 252 18260831505360976461
17980427 23 11815600991755219169
1813 80 17846227652306378764
18222031 100 18272937128598574104
193927 3 18341619187790552964
1979834 28 17060064731175837974
20028762 73 18131070433101440014
20567600 234 12463567396001422929
21130935 74 18341333409357033779
21150785 3 16587747546733048454
21267235 1 18410014320848024270
21279426 13 18261664896630777861
21344244 78 17060616686303274984
21365058 113 17749114413075104029
21682296 61 18340772554677681087
21781051 124 17530974608948713459
22061861 79 18334573555501752207
221357 26 18261108573542628436
2215653 11 18187082866607408363
2297311 6 17530683213040296437
2303208 19 17968100867150589913
23522609 53 18119562931357002797
23559900 14 18042122223516255125
3004659 81 17822010896177867298
312425 54 15267339613452348374
345986 75 17917144997014454170
3472631 163 7853273351412019442
34797466 226 16950567734845180885
465052 167 18413392034065533534
5104073 3 16558181765309657115
5718773 13 18266457604088348854
59682541 52 14056997171316767506
59755656 215 17894909616237056515
6438161 24 17894622635549856114
86090 222 17845671269606185694
8863177 126 18189623911220795339
8988823 20 17275379937269953408
960060 61 16950286196182165614

> <PUBCHEM_SHAPE_MULTIPOLES>
474.66
18.47
2.18
1.19
12.17
0.89
-0.01
-13.6
1.83
-2.51
-0.45
-0.2
0
0.93

> <PUBCHEM_SHAPE_SELFOVERLAP>
1019.031

> <PUBCHEM_SHAPE_VOLUME>
262.6

> <PUBCHEM_COORDINATE_TYPE>
2
5
10

$$$$
