29381
  -OEChem-11232109033D

 34 33  0     1  0  0  0  0  0999 V2000
   -4.0665    2.0628   -0.0675 O   0  0  0  0  0  0  0  0  0  0  0  0
    0.1918   -0.7315    0.0901 C   0  0  0  0  0  0  0  0  0  0  0  0
   -1.1340   -0.0544   -0.2687 C   0  0  0  0  0  0  0  0  0  0  0  0
    1.4189    0.1347   -0.2086 C   0  0  0  0  0  0  0  0  0  0  0  0
   -2.3246   -0.9517    0.0844 C   0  0  0  0  0  0  0  0  0  0  0  0
    2.7421   -0.5320    0.1736 C   0  0  0  0  0  0  0  0  0  0  0  0
   -3.6824   -0.3344   -0.2840 C   0  0  1  0  0  0  0  0  0  0  0  0
    3.9313    0.3811   -0.1340 C   0  0  0  0  0  0  0  0  0  0  0  0
    5.2570   -0.2967    0.2117 C   0  0  0  0  0  0  0  0  0  0  0  0
   -4.8577   -1.2655    0.0004 C   0  0  0  0  0  0  0  0  0  0  0  0
   -3.9147    0.9675    0.4638 C   0  0  0  0  0  0  0  0  0  0  0  0
    6.4387    0.6201   -0.0613 C   0  0  0  0  0  0  0  0  0  0  0  0
    0.1887   -0.9873    1.1571 H   0  0  0  0  0  0  0  0  0  0  0  0
    0.2774   -1.6760   -0.4614 H   0  0  0  0  0  0  0  0  0  0  0  0
   -1.1496    0.1754   -1.3406 H   0  0  0  0  0  0  0  0  0  0  0  0
   -1.2064    0.8979    0.2690 H   0  0  0  0  0  0  0  0  0  0  0  0
    1.3249    1.0847    0.3321 H   0  0  0  0  0  0  0  0  0  0  0  0
    1.4314    0.3794   -1.2779 H   0  0  0  0  0  0  0  0  0  0  0  0
   -2.2176   -1.9122   -0.4351 H   0  0  0  0  0  0  0  0  0  0  0  0
   -2.3019   -1.1681    1.1604 H   0  0  0  0  0  0  0  0  0  0  0  0
    2.7337   -0.7795    1.2419 H   0  0  0  0  0  0  0  0  0  0  0  0
    2.8474   -1.4747   -0.3767 H   0  0  0  0  0  0  0  0  0  0  0  0
   -3.6842   -0.0980   -1.3557 H   0  0  0  0  0  0  0  0  0  0  0  0
    3.9245    0.6501   -1.1973 H   0  0  0  0  0  0  0  0  0  0  0  0
    3.8340    1.3133    0.4357 H   0  0  0  0  0  0  0  0  0  0  0  0
    5.2635   -0.5845    1.2695 H   0  0  0  0  0  0  0  0  0  0  0  0
    5.3698   -1.2155   -0.3754 H   0  0  0  0  0  0  0  0  0  0  0  0
   -4.9098   -1.5250    1.0636 H   0  0  0  0  0  0  0  0  0  0  0  0
   -5.8072   -0.7908   -0.2703 H   0  0  0  0  0  0  0  0  0  0  0  0
   -4.7653   -2.1934   -0.5730 H   0  0  0  0  0  0  0  0  0  0  0  0
   -3.9404    0.8789    1.5646 H   0  0  0  0  0  0  0  0  0  0  0  0
    6.3728    1.5343    0.5373 H   0  0  0  0  0  0  0  0  0  0  0  0
    6.4797    0.9031   -1.1180 H   0  0  0  0  0  0  0  0  0  0  0  0
    7.3763    0.1154    0.1918 H   0  0  0  0  0  0  0  0  0  0  0  0
  1 11  2  0  0  0  0
  2  3  1  0  0  0  0
  2  4  1  0  0  0  0
  2 13  1  0  0  0  0
  2 14  1  0  0  0  0
  3  5  1  0  0  0  0
  3 15  1  0  0  0  0
  3 16  1  0  0  0  0
  4  6  1  0  0  0  0
  4 17  1  0  0  0  0
  4 18  1  0  0  0  0
  5  7  1  0  0  0  0
  5 19  1  0  0  0  0
  5 20  1  0  0  0  0
  6  8  1  0  0  0  0
  6 21  1  0  0  0  0
  6 22  1  0  0  0  0
  7 10  1  0  0  0  0
  7 11  1  0  0  0  0
  7 23  1  0  0  0  0
  8  9  1  0  0  0  0
  8 24  1  0  0  0  0
  8 25  1  0  0  0  0
  9 12  1  0  0  0  0
  9 26  1  0  0  0  0
  9 27  1  0  0  0  0
 10 28  1  0  0  0  0
 10 29  1  0  0  0  0
 10 30  1  0  0  0  0
 11 31  1  0  0  0  0
 12 32  1  0  0  0  0
 12 33  1  0  0  0  0
 12 34  1  0  0  0  0
M  END
> <PUBCHEM_COMPOUND_CID>
29381

> <PUBCHEM_CONFORMER_RMSD>
0.8

> <PUBCHEM_CONFORMER_DIVERSEORDER>
1
211
104
231
83
31
93
52
222
20
208
50
215
171
117
2
185
187
217
109
9
151
118
86
46
74
112
28
220
148
40
196
11
128
225
162
144
177
24
189
212
170
236
3
5
35
134
7
195
190
92
198
23
133
226
233
119
13
17
209
147
167
87
55
165
48
108
154
200
178
123
63
234
99
57
230
95
78
27
22
150
155
81
44
66
96
25
69
21
124
10
164
232
77
94
38
213
37
4
132
26
126
228
67
227
122
60
33
172
41
214
91
149
54
8
80
216
176
29
181
207
159
121
18
110
39
206
141
34
19
56
135
183
70
61
191
59
235
106
197
79
153
49
42
199
6
100
229
182
51
138
58
125
237
140
173
219
114
68
168
71
221
103
107
120
62
36
174
158
166
53
224
85
131
90
84
202
156
64
169
146
127
179
88
102
65
139
145
47
30
129
203
223
130
12
113
186
184
194
105
43
32
16
98
116
89
72
73
75
15
201
14
210
192
101
218
45
143
161
137
97
180
157
136
115
193
204
163
76
111
205
82
142
175
160
152
188

> <PUBCHEM_MMFF94_PARTIAL_CHARGES>
4
1 -0.57
11 0.45
31 0.06
7 0.06

> <PUBCHEM_EFFECTIVE_ROTOR_COUNT>
8

> <PUBCHEM_PHARMACOPHORE_FEATURES>
3
1 1 acceptor
1 10 hydrophobe
1 12 hydrophobe

> <PUBCHEM_HEAVY_ATOM_COUNT>
12

> <PUBCHEM_ATOM_DEF_STEREO_COUNT>
0

> <PUBCHEM_ATOM_UDEF_STEREO_COUNT>
1

> <PUBCHEM_BOND_DEF_STEREO_COUNT>
0

> <PUBCHEM_BOND_UDEF_STEREO_COUNT>
0

> <PUBCHEM_ISOTOPIC_ATOM_COUNT>
0

> <PUBCHEM_COMPONENT_COUNT>
1

> <PUBCHEM_CACTVS_TAUTO_COUNT>
2

> <PUBCHEM_CONFORMER_ID>
000072C500000001

> <PUBCHEM_MMFF94_ENERGY>
1.9678

> <PUBCHEM_FEATURE_SELFOVERLAP>
15.223

> <PUBCHEM_SHAPE_FINGERPRINT>
10680689 15 17775281690356836935
10912923 1 17967809449097852610
12091667 2 18342175587639233998
14123238 8 18040433304535451430
14251718 22 18272933847153876202
15501527 16 18342742879962925265
17834072 33 18342457084206656838
17834076 25 18408322207498482530
19433438 28 18271523186403966585
20281389 69 18334856091367429464
20621476 66 18271535186891368425
20645477 56 18273216370556118881
20645477 70 16845304795808120422
21426921 1 18342174480112522247
23402539 116 18341889693083004316
26918003 58 12035445042956425246
2916195 48 18343294903624962800
42788 4 18411981373589897262
441001 317 18272370849750261985
49783359 22 11530485540529234392
7062679 6 18336835203781494252

> <PUBCHEM_SHAPE_MULTIPOLES>
241.09
14.7
1.29
0.65
13.92
0.49
0.01
2.02
0.37
-1.95
0.03
-0.04
0
-0.22

> <PUBCHEM_SHAPE_SELFOVERLAP>
432.421

> <PUBCHEM_SHAPE_VOLUME>
156.2

> <PUBCHEM_COORDINATE_TYPE>
2
5
10

$$$$
