29933357
  -OEChem-11232109233D

 26 26  0     0  0  0  0  0  0999 V2000
   -2.3527    1.1814    1.2035 S   0  0  0  0  0  0  0  0  0  0  0  0
    1.2019    0.2582   -0.4303 O   0  0  0  0  0  0  0  0  0  0  0  0
    3.1372    1.1765    0.4267 O   0  0  0  0  0  0  0  0  0  0  0  0
   -2.9294   -1.2407    0.5081 N   0  0  0  0  0  0  0  0  0  0  0  0
   -0.7864    1.4616   -1.0987 C   0  0  0  0  0  0  0  0  0  0  0  0
   -1.6819    0.5846   -0.2577 C   0  0  0  0  0  0  0  0  0  0  0  0
    0.6245    1.5641   -0.5299 C   0  0  0  0  0  0  0  0  0  0  0  0
   -2.0987   -0.7142   -0.4616 C   0  0  0  0  0  0  0  0  0  0  0  0
    2.9324   -1.2249    0.1088 C   0  0  0  0  0  0  0  0  0  0  0  0
   -1.7392   -1.5723   -1.6090 C   0  0  0  0  0  0  0  0  0  0  0  0
    2.4730    0.2138    0.0687 C   0  0  0  0  0  0  0  0  0  0  0  0
   -3.1310   -0.3305    1.4349 C   0  0  0  0  0  0  0  0  0  0  0  0
    4.3504   -1.3575    0.6363 C   0  0  0  0  0  0  0  0  0  0  0  0
   -1.2231    2.4629   -1.1928 H   0  0  0  0  0  0  0  0  0  0  0  0
   -0.7346    1.0418   -2.1107 H   0  0  0  0  0  0  0  0  0  0  0  0
    0.6076    2.0277    0.4637 H   0  0  0  0  0  0  0  0  0  0  0  0
    1.2392    2.1801   -1.1968 H   0  0  0  0  0  0  0  0  0  0  0  0
    2.2503   -1.7882    0.7545 H   0  0  0  0  0  0  0  0  0  0  0  0
    2.8842   -1.6326   -0.9064 H   0  0  0  0  0  0  0  0  0  0  0  0
   -0.6530   -1.6835   -1.6858 H   0  0  0  0  0  0  0  0  0  0  0  0
   -2.1709   -2.5730   -1.5046 H   0  0  0  0  0  0  0  0  0  0  0  0
   -2.1120   -1.1423   -2.5440 H   0  0  0  0  0  0  0  0  0  0  0  0
   -3.7531   -0.5178    2.2993 H   0  0  0  0  0  0  0  0  0  0  0  0
    5.0570   -0.8058    0.0075 H   0  0  0  0  0  0  0  0  0  0  0  0
    4.4296   -0.9627    1.6547 H   0  0  0  0  0  0  0  0  0  0  0  0
    4.6544   -2.4087    0.6522 H   0  0  0  0  0  0  0  0  0  0  0  0
  1  6  1  0  0  0  0
  1 12  1  0  0  0  0
  2  7  1  0  0  0  0
  2 11  1  0  0  0  0
  3 11  2  0  0  0  0
  4  8  1  0  0  0  0
  4 12  2  0  0  0  0
  5  6  1  0  0  0  0
  5  7  1  0  0  0  0
  5 14  1  0  0  0  0
  5 15  1  0  0  0  0
  6  8  2  0  0  0  0
  7 16  1  0  0  0  0
  7 17  1  0  0  0  0
  8 10  1  0  0  0  0
  9 11  1  0  0  0  0
  9 13  1  0  0  0  0
  9 18  1  0  0  0  0
  9 19  1  0  0  0  0
 10 20  1  0  0  0  0
 10 21  1  0  0  0  0
 10 22  1  0  0  0  0
 12 23  1  0  0  0  0
 13 24  1  0  0  0  0
 13 25  1  0  0  0  0
 13 26  1  0  0  0  0
M  END
> <PUBCHEM_COMPOUND_CID>
29933357

> <PUBCHEM_CONFORMER_RMSD>
0.6

> <PUBCHEM_CONFORMER_DIVERSEORDER>
1
127
132
37
26
107
74
94
119
131
59
90
176
133
136
30
165
112
142
8
46
71
31
11
22
82
41
166
42
56
40
23
84
79
174
25
158
179
93
85
33
117
28
113
35
13
115
111
6
154
92
39
10
143
32
145
60
87
9
178
105
163
48
100
140
38
171
106
175
152
160
15
24
29
157
118
70
123
63
12
109
155
156
170
5
101
110
130
86
20
96
21
89
114
72
50
125
167
141
76
77
27
51
150
62
162
83
164
58
148
104
153
78
3
44
172
99
134
122
126
137
116
121
168
151
128
36
173
80
159
120
147
7
146
55
169
18
73
95
64
57
149
66
108
14
144
124
97
68
49
88
161
103
34
135
61
52
129
177
139
69
102
98
138
53
65
75
67
43
17
4
54
47
19
81
45
91
16
2

> <PUBCHEM_MMFF94_PARTIAL_CHARGES>
13
1 -0.08
10 0.18
11 0.66
12 0.23
2 -0.43
23 0.15
3 -0.57
4 -0.57
5 0.18
6 -0.14
7 0.28
8 0.05
9 0.06

> <PUBCHEM_EFFECTIVE_ROTOR_COUNT>
5

> <PUBCHEM_PHARMACOPHORE_FEATURES>
4
1 13 hydrophobe
1 3 acceptor
1 4 acceptor
5 1 4 6 8 12 rings

> <PUBCHEM_HEAVY_ATOM_COUNT>
13

> <PUBCHEM_ATOM_DEF_STEREO_COUNT>
0

> <PUBCHEM_ATOM_UDEF_STEREO_COUNT>
0

> <PUBCHEM_BOND_DEF_STEREO_COUNT>
0

> <PUBCHEM_BOND_UDEF_STEREO_COUNT>
0

> <PUBCHEM_ISOTOPIC_ATOM_COUNT>
0

> <PUBCHEM_COMPONENT_COUNT>
1

> <PUBCHEM_CACTVS_TAUTO_COUNT>
1

> <PUBCHEM_CONFORMER_ID>
01C8BF2D00000001

> <PUBCHEM_MMFF94_ENERGY>
7.3994

> <PUBCHEM_FEATURE_SELFOVERLAP>
20.297

> <PUBCHEM_SHAPE_FINGERPRINT>
10618630 7 18040438793281940732
11127187 94 16443057305506886899
12251169 10 18059856142979973916
12382932 28 17988649574999664973
12932764 1 18342175587681523124
13296908 3 18040149617534519364
13764800 53 14764355967484382003
14123260 362 11311763029927032346
14577589 140 18338515231699382205
15239191 94 18187929439490732402
15375462 189 18341056327672774752
19766037 51 17241064148743097746
20281407 28 18113340812192225268
20361792 2 17822012029363567965
20871999 31 11603117127393237513
21061003 4 17676494955583339873
22445834 79 18269842063211031725
23419403 2 15192992905473492769
23500284 5 18055630878840719919
23557571 272 15357693136768780708
27216 239 14333116494700842931
3082319 5 12179841706235721664
3248919 1 17132110243212448292
4072396 5 17915764105590655955
528716 315 12107796206683280915
5706482 22 17632580397141017915
81228 2 17677594402613248413

> <PUBCHEM_SHAPE_MULTIPOLES>
254.66
6.74
1.83
1.33
6.6
0.03
0.03
2.48
-2.82
-0.06
0.35
-1.05
0.13
-0.61

> <PUBCHEM_SHAPE_SELFOVERLAP>
494.237

> <PUBCHEM_SHAPE_VOLUME>
156.6

> <PUBCHEM_COORDINATE_TYPE>
2
5
10

$$$$
