3015979
  -OEChem-11232109453D

 23 22  0     1  0  0  0  0  0999 V2000
    0.0513   -2.1298   -0.4619 S   0  0  0  0  0  0  0  0  0  0  0  0
   -1.9408    2.5047   -0.2591 O   0  0  0  0  0  0  0  0  0  0  0  0
   -0.1789   -0.4563    0.2538 C   0  0  1  0  0  0  0  0  0  0  0  0
    0.9849    0.4772   -0.1252 C   0  0  0  0  0  0  0  0  0  0  0  0
    2.3614   -0.0386    0.3094 C   0  0  0  0  0  0  0  0  0  0  0  0
   -1.5133    0.1317   -0.2220 C   0  0  0  0  0  0  0  0  0  0  0  0
    3.4671    0.9214   -0.1040 C   0  0  0  0  0  0  0  0  0  0  0  0
   -1.7908    1.4794    0.3977 C   0  0  0  0  0  0  0  0  0  0  0  0
   -1.4408   -2.8897    0.2112 C   0  0  0  0  0  0  0  0  0  0  0  0
   -0.1897   -0.5591    1.3458 H   0  0  0  0  0  0  0  0  0  0  0  0
    0.8328    1.4606    0.3369 H   0  0  0  0  0  0  0  0  0  0  0  0
    0.9878    0.6441   -1.2108 H   0  0  0  0  0  0  0  0  0  0  0  0
    2.5845   -1.0119   -0.1379 H   0  0  0  0  0  0  0  0  0  0  0  0
    2.3812   -0.1667    1.3978 H   0  0  0  0  0  0  0  0  0  0  0  0
   -1.5304    0.2463   -1.3126 H   0  0  0  0  0  0  0  0  0  0  0  0
   -2.3684   -0.4870    0.0644 H   0  0  0  0  0  0  0  0  0  0  0  0
    3.4949    1.0434   -1.1915 H   0  0  0  0  0  0  0  0  0  0  0  0
    3.3208    1.9070    0.3494 H   0  0  0  0  0  0  0  0  0  0  0  0
    4.4406    0.5404    0.2202 H   0  0  0  0  0  0  0  0  0  0  0  0
   -1.8668    1.4943    1.4985 H   0  0  0  0  0  0  0  0  0  0  0  0
   -1.3273   -3.9769    0.1651 H   0  0  0  0  0  0  0  0  0  0  0  0
   -2.3184   -2.6287   -0.3851 H   0  0  0  0  0  0  0  0  0  0  0  0
   -1.5950   -2.6131    1.2576 H   0  0  0  0  0  0  0  0  0  0  0  0
  1  3  1  0  0  0  0
  1  9  1  0  0  0  0
  2  8  2  0  0  0  0
  3  4  1  0  0  0  0
  3  6  1  0  0  0  0
  3 10  1  0  0  0  0
  4  5  1  0  0  0  0
  4 11  1  0  0  0  0
  4 12  1  0  0  0  0
  5  7  1  0  0  0  0
  5 13  1  0  0  0  0
  5 14  1  0  0  0  0
  6  8  1  0  0  0  0
  6 15  1  0  0  0  0
  6 16  1  0  0  0  0
  7 17  1  0  0  0  0
  7 18  1  0  0  0  0
  7 19  1  0  0  0  0
  8 20  1  0  0  0  0
  9 21  1  0  0  0  0
  9 22  1  0  0  0  0
  9 23  1  0  0  0  0
M  END
> <PUBCHEM_COMPOUND_CID>
3015979

> <PUBCHEM_CONFORMER_RMSD>
0.6

> <PUBCHEM_CONFORMER_DIVERSEORDER>
3
53
49
46
52
26
29
42
37
13
2
51
27
15
47
54
36
12
48
5
43
6
50
10
45
7
38
25
39
32
33
14
20
44
28
41
9
40
8
23
18
17
21
22
30
31
4
1
24
35
16
34
19
11

> <PUBCHEM_MMFF94_PARTIAL_CHARGES>
7
1 -0.46
2 -0.57
20 0.06
3 0.23
6 0.06
8 0.45
9 0.23

> <PUBCHEM_EFFECTIVE_ROTOR_COUNT>
5

> <PUBCHEM_PHARMACOPHORE_FEATURES>
5
1 2 acceptor
1 7 hydrophobe
1 9 hydrophobe
3 1 3 6 hydrophobe
5 1 3 4 5 6 hydrophobe

> <PUBCHEM_HEAVY_ATOM_COUNT>
9

> <PUBCHEM_ATOM_DEF_STEREO_COUNT>
0

> <PUBCHEM_ATOM_UDEF_STEREO_COUNT>
1

> <PUBCHEM_BOND_DEF_STEREO_COUNT>
0

> <PUBCHEM_BOND_UDEF_STEREO_COUNT>
0

> <PUBCHEM_ISOTOPIC_ATOM_COUNT>
0

> <PUBCHEM_COMPONENT_COUNT>
1

> <PUBCHEM_CACTVS_TAUTO_COUNT>
2

> <PUBCHEM_CONFORMER_ID>
002E052B00000003

> <PUBCHEM_MMFF94_ENERGY>
11.4841

> <PUBCHEM_FEATURE_SELFOVERLAP>
29.276

> <PUBCHEM_SHAPE_FINGERPRINT>
1 1 18050567335361936670
100427 49 17548413069190899548
12716758 59 18343017796492647074
14648413 74 17616256875473965569
19021347 4 18338517434848786923
20711985 344 18196357324507822370
20871998 184 18128262383393143902
21040471 1 18411980222127198818
23526114 1 18051131389111546431
23552423 10 17764862499228809221
23552449 1 18195525028623018544
23595355 12 18124594172148180230
81228 2 18268148849537453283

> <PUBCHEM_SHAPE_MULTIPOLES>
183.2
3.89
3.01
0.7
4.52
0.11
-0.01
0.38
0.12
-3.13
-0.13
-0.03
-0.06
0.06

> <PUBCHEM_SHAPE_SELFOVERLAP>
315.546

> <PUBCHEM_SHAPE_VOLUME>
123

> <PUBCHEM_COORDINATE_TYPE>
2
5
10

$$$$
