3016085
  -OEChem-11232109163D

 30 29  0     1  0  0  0  0  0999 V2000
    1.4212    0.2009    0.1551 O   0  0  0  0  0  0  0  0  0  0  0  0
    3.7648    1.4827   -0.6065 O   0  0  0  0  0  0  0  0  0  0  0  0
    0.2570   -1.7284   -0.3377 O   0  0  0  0  0  0  0  0  0  0  0  0
   -2.2417   -0.3846   -0.0747 C   0  0  0  0  0  0  0  0  0  0  0  0
   -3.4545    0.5395    0.0719 C   0  0  0  0  0  0  0  0  0  0  0  0
   -0.9164    0.3623    0.0742 C   0  0  0  0  0  0  0  0  0  0  0  0
   -4.7633   -0.2416   -0.0483 C   0  0  0  0  0  0  0  0  0  0  0  0
    3.8062    0.4339    0.3599 C   0  0  1  0  0  0  0  0  0  0  0  0
    0.2930   -0.5338   -0.0768 C   0  0  0  0  0  0  0  0  0  0  0  0
    2.6541   -0.5220    0.0785 C   0  0  0  0  0  0  0  0  0  0  0  0
   -5.9711    0.6622    0.1411 C   0  0  0  0  0  0  0  0  0  0  0  0
    5.1507   -0.2712    0.2632 C   0  0  0  0  0  0  0  0  0  0  0  0
   -2.2940   -1.1821    0.6773 H   0  0  0  0  0  0  0  0  0  0  0  0
   -2.2748   -0.8782   -1.0542 H   0  0  0  0  0  0  0  0  0  0  0  0
   -3.4173    1.3204   -0.6971 H   0  0  0  0  0  0  0  0  0  0  0  0
   -3.4141    1.0419    1.0461 H   0  0  0  0  0  0  0  0  0  0  0  0
   -0.8504    1.1479   -0.6871 H   0  0  0  0  0  0  0  0  0  0  0  0
   -0.8727    0.8268    1.0661 H   0  0  0  0  0  0  0  0  0  0  0  0
   -4.8214   -0.7211   -1.0323 H   0  0  0  0  0  0  0  0  0  0  0  0
   -4.7921   -1.0390    0.7035 H   0  0  0  0  0  0  0  0  0  0  0  0
    3.6784    0.8938    1.3459 H   0  0  0  0  0  0  0  0  0  0  0  0
    2.7471   -0.9370   -0.9325 H   0  0  0  0  0  0  0  0  0  0  0  0
    2.6473   -1.3368    0.8114 H   0  0  0  0  0  0  0  0  0  0  0  0
   -5.9599    1.1301    1.1307 H   0  0  0  0  0  0  0  0  0  0  0  0
   -5.9900    1.4547   -0.6137 H   0  0  0  0  0  0  0  0  0  0  0  0
   -6.8956    0.0835    0.0495 H   0  0  0  0  0  0  0  0  0  0  0  0
    5.9672    0.4337    0.4538 H   0  0  0  0  0  0  0  0  0  0  0  0
    5.2228   -1.0896    0.9858 H   0  0  0  0  0  0  0  0  0  0  0  0
    5.3122   -0.6737   -0.7429 H   0  0  0  0  0  0  0  0  0  0  0  0
    4.4948    2.0935   -0.4073 H   0  0  0  0  0  0  0  0  0  0  0  0
  1  9  1  0  0  0  0
  1 10  1  0  0  0  0
  2  8  1  0  0  0  0
  2 30  1  0  0  0  0
  3  9  2  0  0  0  0
  4  5  1  0  0  0  0
  4  6  1  0  0  0  0
  4 13  1  0  0  0  0
  4 14  1  0  0  0  0
  5  7  1  0  0  0  0
  5 15  1  0  0  0  0
  5 16  1  0  0  0  0
  6  9  1  0  0  0  0
  6 17  1  0  0  0  0
  6 18  1  0  0  0  0
  7 11  1  0  0  0  0
  7 19  1  0  0  0  0
  7 20  1  0  0  0  0
  8 10  1  0  0  0  0
  8 12  1  0  0  0  0
  8 21  1  0  0  0  0
 10 22  1  0  0  0  0
 10 23  1  0  0  0  0
 11 24  1  0  0  0  0
 11 25  1  0  0  0  0
 11 26  1  0  0  0  0
 12 27  1  0  0  0  0
 12 28  1  0  0  0  0
 12 29  1  0  0  0  0
M  END
> <PUBCHEM_COMPOUND_CID>
3016085

> <PUBCHEM_CONFORMER_RMSD>
0.8

> <PUBCHEM_CONFORMER_DIVERSEORDER>
1
90
122
214
204
226
104
271
173
218
73
298
10
236
180
12
209
198
224
182
148
248
249
80
217
143
181
146
178
136
130
274
185
14
195
177
40
4
170
306
213
208
219
282
107
216
308
197
232
97
196
68
199
5
11
26
77
289
56
269
152
297
3
293
190
215
284
24
294
290
57
149
111
144
38
225
295
254
7
166
241
119
273
99
2
110
151
8
121
305
49
25
174
280
59
141
63
18
267
83
87
58
13
6
246
252
278
300
147
16
223
243
124
228
192
17
154
260
186
299
15
221
270
281
115
288
19
81
139
296
123
9
20
153
163
101
275
168
158
230
138
301
23
48
310
164
200
84
276
76
27
60
42
257
265
133
54
245
203
34
114
37
233
91
240
155
46
120
113
62
131
125
22
279
28
47
103
44
194
277
100
175
302
75
36
109
31
85
171
29
211
183
134
193
259
30
234
172
283
206
132
41
285
93
188
220
244
61
96
55
65
251
118
161
88
112
39
272
268
291
201
256
237
263
69
262
266
140
258
45
231
229
303
86
89
189
82
247
156
129
261
176
159
150
72
94
242
184
179
71
304
169
142
135
33
21
210
128
51
212
106
207
227
70
52
160
222
50
66
127
309
235
98
35
116
74
286
102
165
253
79
78
32
117
126
67
53
191
250
307
187
238
145
167
292
287
95
64
105
239
264
255
205
92
162
137
157
108
202
43

> <PUBCHEM_MMFF94_PARTIAL_CHARGES>
8
1 -0.43
10 0.28
2 -0.68
3 -0.57
30 0.4
6 0.06
8 0.28
9 0.66

> <PUBCHEM_EFFECTIVE_ROTOR_COUNT>
7

> <PUBCHEM_PHARMACOPHORE_FEATURES>
5
1 11 hydrophobe
1 2 acceptor
1 2 donor
1 3 acceptor
4 4 5 6 7 hydrophobe

> <PUBCHEM_HEAVY_ATOM_COUNT>
12

> <PUBCHEM_ATOM_DEF_STEREO_COUNT>
0

> <PUBCHEM_ATOM_UDEF_STEREO_COUNT>
1

> <PUBCHEM_BOND_DEF_STEREO_COUNT>
0

> <PUBCHEM_BOND_UDEF_STEREO_COUNT>
0

> <PUBCHEM_ISOTOPIC_ATOM_COUNT>
0

> <PUBCHEM_COMPONENT_COUNT>
1

> <PUBCHEM_CACTVS_TAUTO_COUNT>
1

> <PUBCHEM_CONFORMER_ID>
002E059500000001

> <PUBCHEM_MMFF94_ENERGY>
6.1308

> <PUBCHEM_FEATURE_SELFOVERLAP>
25.372

> <PUBCHEM_SHAPE_FINGERPRINT>
11062470 55 17967250897291103915
114248 4 14333407852365354105
12714333 28 16773794792482329417
12815109 37 8502654809284100777
13533116 47 16950553342836838816
14123238 8 17967532376610254573
14251718 22 12823290208909378373
14252887 29 12829482610857149152
15048467 5 18272652312628073721
17834072 33 18059570334708348365
17834072 8 18272377460358850454
17834076 25 18272932717962384889
187816 3 16702304559181770122
20645477 70 17774728545803521710
20719005 15 18410292510180028257
20724930 37 18040716965476312630
20767249 13 7853574612606470369
212847 35 18413388761216252632
23402539 116 17918266563257096589
23402655 69 17988358179386965949
23557571 272 17023464140733797861
366044 4 18343581849941901118
42630746 31 18059857216833185254
42788 4 18408885135818753401
449060 50 18409168792754914623

> <PUBCHEM_SHAPE_MULTIPOLES>
229.35
12.77
1.1
0.65
6.22
0.1
0
-2.89
0.78
-0.45
-0.14
-0.12
-0.04
-0.27

> <PUBCHEM_SHAPE_SELFOVERLAP>
419.688

> <PUBCHEM_SHAPE_VOLUME>
146.3

> <PUBCHEM_COORDINATE_TYPE>
2
5
10

$$$$
