3016499
  -OEChem-11232108543D

 24 23  0     0  0  0  0  0  0999 V2000
   -2.5491   -0.4151    0.1525 S   0  0  0  0  0  0  0  0  0  0  0  0
    1.2861    0.2130   -0.1623 O   0  0  0  0  0  0  0  0  0  0  0  0
    0.1324   -0.9772    1.4292 O   0  0  0  0  0  0  0  0  0  0  0  0
   -1.0457    0.6308   -0.0048 C   0  0  0  0  0  0  0  0  0  0  0  0
   -0.8506    0.9602   -1.4868 C   0  0  0  0  0  0  0  0  0  0  0  0
   -1.2632    1.8993    0.8239 C   0  0  0  0  0  0  0  0  0  0  0  0
    0.1598   -0.1499    0.5265 C   0  0  0  0  0  0  0  0  0  0  0  0
    2.4947   -0.4450    0.2319 C   0  0  0  0  0  0  0  0  0  0  0  0
   -1.9999   -1.7826   -0.8885 C   0  0  0  0  0  0  0  0  0  0  0  0
    3.6355    0.0665   -0.6217 C   0  0  0  0  0  0  0  0  0  0  0  0
   -1.7724    1.3348   -1.9482 H   0  0  0  0  0  0  0  0  0  0  0  0
   -0.1044    1.7557   -1.6114 H   0  0  0  0  0  0  0  0  0  0  0  0
   -0.4885    0.1117   -2.0773 H   0  0  0  0  0  0  0  0  0  0  0  0
   -1.4118    1.6690    1.8857 H   0  0  0  0  0  0  0  0  0  0  0  0
   -0.3839    2.5521    0.7661 H   0  0  0  0  0  0  0  0  0  0  0  0
   -2.1248    2.4770    0.4699 H   0  0  0  0  0  0  0  0  0  0  0  0
    2.6981   -0.2330    1.2874 H   0  0  0  0  0  0  0  0  0  0  0  0
    2.3837   -1.5260    0.0921 H   0  0  0  0  0  0  0  0  0  0  0  0
   -2.7117   -2.6050   -0.7659 H   0  0  0  0  0  0  0  0  0  0  0  0
   -1.0154   -2.1676   -0.6165 H   0  0  0  0  0  0  0  0  0  0  0  0
   -2.0159   -1.5058   -1.9454 H   0  0  0  0  0  0  0  0  0  0  0  0
    4.5771   -0.4169   -0.3468 H   0  0  0  0  0  0  0  0  0  0  0  0
    3.4374   -0.1216   -1.6821 H   0  0  0  0  0  0  0  0  0  0  0  0
    3.7470    1.1498   -0.5067 H   0  0  0  0  0  0  0  0  0  0  0  0
  1  4  1  0  0  0  0
  1  9  1  0  0  0  0
  2  7  1  0  0  0  0
  2  8  1  0  0  0  0
  3  7  2  0  0  0  0
  4  5  1  0  0  0  0
  4  6  1  0  0  0  0
  4  7  1  0  0  0  0
  5 11  1  0  0  0  0
  5 12  1  0  0  0  0
  5 13  1  0  0  0  0
  6 14  1  0  0  0  0
  6 15  1  0  0  0  0
  6 16  1  0  0  0  0
  8 10  1  0  0  0  0
  8 17  1  0  0  0  0
  8 18  1  0  0  0  0
  9 19  1  0  0  0  0
  9 20  1  0  0  0  0
  9 21  1  0  0  0  0
 10 22  1  0  0  0  0
 10 23  1  0  0  0  0
 10 24  1  0  0  0  0
M  END
> <PUBCHEM_COMPOUND_CID>
3016499

> <PUBCHEM_CONFORMER_RMSD>
0.6

> <PUBCHEM_CONFORMER_DIVERSEORDER>
2
40
42
43
13
36
35
20
25
12
18
6
26
38
30
3
34
17
22
41
44
16
37
27
21
45
29
28
33
32
14
7
11
24
10
19
23
4
39
8
1
15
9
5
31

> <PUBCHEM_MMFF94_PARTIAL_CHARGES>
7
1 -0.46
2 -0.43
3 -0.57
4 0.29
7 0.66
8 0.28
9 0.23

> <PUBCHEM_EFFECTIVE_ROTOR_COUNT>
4

> <PUBCHEM_PHARMACOPHORE_FEATURES>
3
1 3 acceptor
1 9 hydrophobe
3 4 5 6 hydrophobe

> <PUBCHEM_HEAVY_ATOM_COUNT>
10

> <PUBCHEM_ATOM_DEF_STEREO_COUNT>
0

> <PUBCHEM_ATOM_UDEF_STEREO_COUNT>
0

> <PUBCHEM_BOND_DEF_STEREO_COUNT>
0

> <PUBCHEM_BOND_UDEF_STEREO_COUNT>
0

> <PUBCHEM_ISOTOPIC_ATOM_COUNT>
0

> <PUBCHEM_COMPONENT_COUNT>
1

> <PUBCHEM_CACTVS_TAUTO_COUNT>
1

> <PUBCHEM_CONFORMER_ID>
002E073300000002

> <PUBCHEM_MMFF94_ENERGY>
21.0336

> <PUBCHEM_FEATURE_SELFOVERLAP>
15.223

> <PUBCHEM_SHAPE_FINGERPRINT>
12716758 59 17987795177308374802
12897270 3 18342171180876096878
12932764 1 18408318865823885930
13024252 1 16370733616622435733
137420 1 12942520038655394353
14128692 85 18191022507153810879
15310529 11 17775005644176369460
15775835 57 17967815985932666324
16945 1 18343863303390553609
19837323 101 17915459393833240129
20653085 51 17024298618076690117
21061003 4 15769779078305144386
21293036 1 16878224263510090910
228727 97 18259700107700231434
23380061 127 18343018870398066184
29004967 10 16343703252793103474
369184 2 18059856134363730608
5084963 1 18113334189552978440
68250623 7 17842844588197766601

> <PUBCHEM_SHAPE_MULTIPOLES>
197.91
4.32
1.57
1.21
4.4
0.15
-0.13
-0.97
-0.71
-1.27
0
-0.17
0.04
-0.32

> <PUBCHEM_SHAPE_SELFOVERLAP>
356.078

> <PUBCHEM_SHAPE_VOLUME>
129.9

> <PUBCHEM_COORDINATE_TYPE>
2
5
10

$$$$
