3017811
  -OEChem-11232109083D

 22 22  0     1  0  0  0  0  0999 V2000
    0.2789   -1.9238   -0.3243 S   0  0  0  0  0  0  0  0  0  0  0  0
    0.3454    0.7967   -0.5362 N   0  0  0  0  0  0  0  0  0  0  0  0
   -1.8063   -0.1863    0.0260 C   0  0  0  0  0  0  0  0  0  0  0  0
   -0.5253   -0.3660   -0.7773 C   0  0  2  0  0  0  0  0  0  0  0  0
    1.7485   -1.0623    0.2344 C   0  0  0  0  0  0  0  0  0  0  0  0
   -1.5025   -0.1268    1.5228 C   0  0  0  0  0  0  0  0  0  0  0  0
   -2.5512    1.0727   -0.4176 C   0  0  0  0  0  0  0  0  0  0  0  0
    1.4727    0.3980   -0.0332 C   0  0  0  0  0  0  0  0  0  0  0  0
    2.5399    1.3978    0.3054 C   0  0  0  0  0  0  0  0  0  0  0  0
   -2.4744   -1.0388   -0.1571 H   0  0  0  0  0  0  0  0  0  0  0  0
   -0.7561   -0.4120   -1.8475 H   0  0  0  0  0  0  0  0  0  0  0  0
    2.6286   -1.3845   -0.3273 H   0  0  0  0  0  0  0  0  0  0  0  0
    1.9109   -1.2188    1.3037 H   0  0  0  0  0  0  0  0  0  0  0  0
   -0.8277    0.6951    1.7833 H   0  0  0  0  0  0  0  0  0  0  0  0
   -2.4320    0.0435    2.0798 H   0  0  0  0  0  0  0  0  0  0  0  0
   -1.0835   -1.0575    1.9151 H   0  0  0  0  0  0  0  0  0  0  0  0
   -1.9885    1.9855   -0.1953 H   0  0  0  0  0  0  0  0  0  0  0  0
   -3.5154    1.1478    0.0972 H   0  0  0  0  0  0  0  0  0  0  0  0
   -2.7524    1.0488   -1.4939 H   0  0  0  0  0  0  0  0  0  0  0  0
    3.4465    1.1641   -0.2588 H   0  0  0  0  0  0  0  0  0  0  0  0
    2.7582    1.3440    1.3753 H   0  0  0  0  0  0  0  0  0  0  0  0
    2.2127    2.4107    0.0563 H   0  0  0  0  0  0  0  0  0  0  0  0
  1  4  1  0  0  0  0
  1  5  1  0  0  0  0
  2  4  1  0  0  0  0
  2  8  2  0  0  0  0
  3  4  1  0  0  0  0
  3  6  1  0  0  0  0
  3  7  1  0  0  0  0
  3 10  1  0  0  0  0
  4 11  1  0  0  0  0
  5  8  1  0  0  0  0
  5 12  1  0  0  0  0
  5 13  1  0  0  0  0
  6 14  1  0  0  0  0
  6 15  1  0  0  0  0
  6 16  1  0  0  0  0
  7 17  1  0  0  0  0
  7 18  1  0  0  0  0
  7 19  1  0  0  0  0
  8  9  1  0  0  0  0
  9 20  1  0  0  0  0
  9 21  1  0  0  0  0
  9 22  1  0  0  0  0
M  END
> <PUBCHEM_COMPOUND_CID>
3017811

> <PUBCHEM_CONFORMER_RMSD>
0.4

> <PUBCHEM_CONFORMER_DIVERSEORDER>
1
4
5
2
3
6

> <PUBCHEM_MMFF94_PARTIAL_CHARGES>
6
1 -0.46
2 -0.7
4 0.48
5 0.29
8 0.33
9 0.06

> <PUBCHEM_EFFECTIVE_ROTOR_COUNT>
1.6

> <PUBCHEM_PHARMACOPHORE_FEATURES>
3
1 2 acceptor
3 3 6 7 hydrophobe
5 1 2 4 5 8 rings

> <PUBCHEM_HEAVY_ATOM_COUNT>
9

> <PUBCHEM_ATOM_DEF_STEREO_COUNT>
0

> <PUBCHEM_ATOM_UDEF_STEREO_COUNT>
1

> <PUBCHEM_BOND_DEF_STEREO_COUNT>
0

> <PUBCHEM_BOND_UDEF_STEREO_COUNT>
0

> <PUBCHEM_ISOTOPIC_ATOM_COUNT>
0

> <PUBCHEM_COMPONENT_COUNT>
1

> <PUBCHEM_CACTVS_TAUTO_COUNT>
1

> <PUBCHEM_CONFORMER_ID>
002E0C5300000001

> <PUBCHEM_MMFF94_ENERGY>
15.8058

> <PUBCHEM_FEATURE_SELFOVERLAP>
15.223

> <PUBCHEM_SHAPE_FINGERPRINT>
12423570 1 12541511719328058570
137420 1 16742779613751338839
15775835 57 18273215330467424321
16945 1 18196088837533092783
19837323 101 15984004655111105771
20653085 51 15552790488575503000
21028194 46 18200595924853203660
21040471 1 18338796831288004318
21922407 69 17846507993326911619
23211744 41 17895462627656760069
241688 4 16971109562720825378
24536 1 17385736810794476639
29004967 10 17967820448335017552
5084963 1 17846495898445700814

> <PUBCHEM_SHAPE_MULTIPOLES>
184.08
3.32
1.67
1.02
0.14
0.47
0.32
-1.54
0.27
-0.67
-0.14
0.44
0.02
0.19

> <PUBCHEM_SHAPE_SELFOVERLAP>
344.552

> <PUBCHEM_SHAPE_VOLUME>
117.6

> <PUBCHEM_COORDINATE_TYPE>
2
5
10

$$$$
