3017418
  -OEChem-11232109133D

 23 22  0     1  0  0  0  0  0999 V2000
   -2.0133    1.9944    0.4422 S   0  0  0  0  0  0  0  0  0  0  0  0
   -0.0176    0.4812   -1.4747 O   0  0  0  0  0  0  0  0  0  0  0  0
   -1.3263    0.3083    0.5420 C   0  0  1  0  0  0  0  0  0  0  0  0
    1.2444    0.0178    0.5313 C   0  0  0  0  0  0  0  0  0  0  0  0
   -2.3375   -0.7084    0.0032 C   0  0  0  0  0  0  0  0  0  0  0  0
   -0.0272    0.3066   -0.2557 C   0  0  0  0  0  0  0  0  0  0  0  0
    2.5131    0.0458   -0.3178 C   0  0  0  0  0  0  0  0  0  0  0  0
   -1.7942   -2.1323    0.0483 C   0  0  0  0  0  0  0  0  0  0  0  0
    3.7585   -0.3133    0.4810 C   0  0  0  0  0  0  0  0  0  0  0  0
   -1.1071    0.0957    1.5936 H   0  0  0  0  0  0  0  0  0  0  0  0
    1.1307   -0.9707    0.9908 H   0  0  0  0  0  0  0  0  0  0  0  0
    1.3212    0.7640    1.3302 H   0  0  0  0  0  0  0  0  0  0  0  0
   -2.6081   -0.4783   -1.0351 H   0  0  0  0  0  0  0  0  0  0  0  0
   -3.2596   -0.6692    0.5963 H   0  0  0  0  0  0  0  0  0  0  0  0
    2.6399    1.0422   -0.7577 H   0  0  0  0  0  0  0  0  0  0  0  0
    2.4136   -0.6557   -1.1549 H   0  0  0  0  0  0  0  0  0  0  0  0
   -1.4944   -2.4054    1.0651 H   0  0  0  0  0  0  0  0  0  0  0  0
   -2.5654   -2.8377   -0.2777 H   0  0  0  0  0  0  0  0  0  0  0  0
   -0.9308   -2.2564   -0.6125 H   0  0  0  0  0  0  0  0  0  0  0  0
    3.6776   -1.3220    0.8984 H   0  0  0  0  0  0  0  0  0  0  0  0
    4.6440   -0.2800   -0.1612 H   0  0  0  0  0  0  0  0  0  0  0  0
    3.9088    0.3898    1.3063 H   0  0  0  0  0  0  0  0  0  0  0  0
   -3.0524    1.7868    1.2644 H   0  0  0  0  0  0  0  0  0  0  0  0
  1  3  1  0  0  0  0
  1 23  1  0  0  0  0
  2  6  2  0  0  0  0
  3  5  1  0  0  0  0
  3  6  1  0  0  0  0
  3 10  1  0  0  0  0
  4  6  1  0  0  0  0
  4  7  1  0  0  0  0
  4 11  1  0  0  0  0
  4 12  1  0  0  0  0
  5  8  1  0  0  0  0
  5 13  1  0  0  0  0
  5 14  1  0  0  0  0
  7  9  1  0  0  0  0
  7 15  1  0  0  0  0
  7 16  1  0  0  0  0
  8 17  1  0  0  0  0
  8 18  1  0  0  0  0
  8 19  1  0  0  0  0
  9 20  1  0  0  0  0
  9 21  1  0  0  0  0
  9 22  1  0  0  0  0
M  END
> <PUBCHEM_COMPOUND_CID>
3017418

> <PUBCHEM_CONFORMER_RMSD>
0.6

> <PUBCHEM_CONFORMER_DIVERSEORDER>
1
120
70
48
83
72
15
124
88
105
76
8
58
23
63
94
5
107
18
114
103
84
41
95
100
108
26
12
125
85
93
17
77
119
66
106
2
59
20
75
71
92
4
45
47
39
98
68
123
44
60
73
116
122
97
27
78
28
53
51
21
34
40
102
49
54
9
81
61
52
104
50
6
31
110
121
67
43
90
62
57
74
87
111
79
64
38
56
35
30
14
25
101
29
36
96
33
115
55
32
91
13
42
11
19
46
117
3
10
89
86
16
69
99
80
22
24
118
82
7
109
112
113
65
37

> <PUBCHEM_MMFF94_PARTIAL_CHARGES>
6
1 -0.41
2 -0.57
23 0.18
3 0.29
4 0.06
6 0.45

> <PUBCHEM_EFFECTIVE_ROTOR_COUNT>
4

> <PUBCHEM_PHARMACOPHORE_FEATURES>
3
1 2 acceptor
1 8 hydrophobe
1 9 hydrophobe

> <PUBCHEM_HEAVY_ATOM_COUNT>
9

> <PUBCHEM_ATOM_DEF_STEREO_COUNT>
0

> <PUBCHEM_ATOM_UDEF_STEREO_COUNT>
1

> <PUBCHEM_BOND_DEF_STEREO_COUNT>
0

> <PUBCHEM_BOND_UDEF_STEREO_COUNT>
0

> <PUBCHEM_ISOTOPIC_ATOM_COUNT>
0

> <PUBCHEM_COMPONENT_COUNT>
1

> <PUBCHEM_CACTVS_TAUTO_COUNT>
5

> <PUBCHEM_CONFORMER_ID>
002E0ACA00000001

> <PUBCHEM_MMFF94_ENERGY>
5.3655

> <PUBCHEM_FEATURE_SELFOVERLAP>
15.223

> <PUBCHEM_SHAPE_FINGERPRINT>
10857977 72 17988922322761046938
12716758 59 18127987320596559250
12932741 1 17560532702680986628
12932764 1 17604143732248999624
14128692 85 17825388732762556687
20715346 28 17346884433835298276
20871998 184 18201444704912101823
23402539 116 18200865206876944029
3248919 1 18341609300606844236
75552 356 18411139147092216195

> <PUBCHEM_SHAPE_MULTIPOLES>
183.2
4.8
1.76
0.92
5.02
0.25
0.22
0.34
-0.83
-2.1
-0.19
0.09
-0.12
-0.18

> <PUBCHEM_SHAPE_SELFOVERLAP>
322.803

> <PUBCHEM_SHAPE_VOLUME>
121.9

> <PUBCHEM_COORDINATE_TYPE>
2
5
10

$$$$
