3017534
  -OEChem-11232109033D

 32 31  0     1  0  0  0  0  0999 V2000
   -2.7960    0.7260   -1.2910 O   0  0  0  0  0  0  0  0  0  0  0  0
    2.1499    1.6315   -0.0798 C   0  0  0  0  0  0  0  0  0  0  0  0
    2.2548    0.1292    0.2001 C   0  0  0  0  0  0  0  0  0  0  0  0
    0.8821    2.2633    0.5043 C   0  0  0  0  0  0  0  0  0  0  0  0
    3.5145   -0.4676   -0.4276 C   0  0  0  0  0  0  0  0  0  0  0  0
   -0.3783    1.7034   -0.0909 C   0  0  0  0  0  0  0  0  0  0  0  0
   -2.6068    0.4850    0.1016 C   0  0  2  0  0  0  0  0  0  0  0  0
   -1.3243    1.0798    0.6283 C   0  0  0  0  0  0  0  0  0  0  0  0
    3.6016   -1.9654   -0.1799 C   0  0  0  0  0  0  0  0  0  0  0  0
   -2.7451   -1.0186    0.3998 C   0  0  0  0  0  0  0  0  0  0  0  0
   -1.6781   -1.8745   -0.2272 C   0  0  0  0  0  0  0  0  0  0  0  0
   -0.8743   -2.6921    0.4624 C   0  0  0  0  0  0  0  0  0  0  0  0
    2.1790    1.8062   -1.1629 H   0  0  0  0  0  0  0  0  0  0  0  0
    3.0234    2.1409    0.3455 H   0  0  0  0  0  0  0  0  0  0  0  0
    2.2619   -0.0436    1.2831 H   0  0  0  0  0  0  0  0  0  0  0  0
    1.3805   -0.3919   -0.2053 H   0  0  0  0  0  0  0  0  0  0  0  0
    0.9025    3.3420    0.3076 H   0  0  0  0  0  0  0  0  0  0  0  0
    0.8878    2.1448    1.5948 H   0  0  0  0  0  0  0  0  0  0  0  0
    4.4042    0.0197   -0.0123 H   0  0  0  0  0  0  0  0  0  0  0  0
    3.5169   -0.2825   -1.5081 H   0  0  0  0  0  0  0  0  0  0  0  0
   -0.5023    1.8236   -1.1636 H   0  0  0  0  0  0  0  0  0  0  0  0
   -3.4272    1.0046    0.6125 H   0  0  0  0  0  0  0  0  0  0  0  0
   -1.1741    0.9791    1.7018 H   0  0  0  0  0  0  0  0  0  0  0  0
    4.5103   -2.3725   -0.6341 H   0  0  0  0  0  0  0  0  0  0  0  0
    3.6297   -2.1846    0.8922 H   0  0  0  0  0  0  0  0  0  0  0  0
    2.7421   -2.4857   -0.6146 H   0  0  0  0  0  0  0  0  0  0  0  0
   -2.7660   -1.1717    1.4865 H   0  0  0  0  0  0  0  0  0  0  0  0
   -3.7096   -1.3699    0.0115 H   0  0  0  0  0  0  0  0  0  0  0  0
   -1.5721   -1.8318   -1.3079 H   0  0  0  0  0  0  0  0  0  0  0  0
   -3.6662    0.3681   -1.5367 H   0  0  0  0  0  0  0  0  0  0  0  0
   -0.1276   -3.2888   -0.0502 H   0  0  0  0  0  0  0  0  0  0  0  0
   -0.9425   -2.7782    1.5411 H   0  0  0  0  0  0  0  0  0  0  0  0
  1  7  1  0  0  0  0
  1 30  1  0  0  0  0
  2  3  1  0  0  0  0
  2  4  1  0  0  0  0
  2 13  1  0  0  0  0
  2 14  1  0  0  0  0
  3  5  1  0  0  0  0
  3 15  1  0  0  0  0
  3 16  1  0  0  0  0
  4  6  1  0  0  0  0
  4 17  1  0  0  0  0
  4 18  1  0  0  0  0
  5  9  1  0  0  0  0
  5 19  1  0  0  0  0
  5 20  1  0  0  0  0
  6  8  2  3  0  0  0
  6 21  1  0  0  0  0
  7  8  1  0  0  0  0
  7 10  1  0  0  0  0
  7 22  1  0  0  0  0
  8 23  1  0  0  0  0
  9 24  1  0  0  0  0
  9 25  1  0  0  0  0
  9 26  1  0  0  0  0
 10 11  1  0  0  0  0
 10 27  1  0  0  0  0
 10 28  1  0  0  0  0
 11 12  2  0  0  0  0
 11 29  1  0  0  0  0
 12 31  1  0  0  0  0
 12 32  1  0  0  0  0
M  END
> <PUBCHEM_COMPOUND_CID>
3017534

> <PUBCHEM_CONFORMER_RMSD>
0.8

> <PUBCHEM_CONFORMER_DIVERSEORDER>
1
73
82
63
17
7
38
119
141
71
140
72
49
133
14
47
110
10
114
36
51
40
136
18
121
105
145
5
16
120
48
139
125
111
28
81
106
23
76
6
19
113
129
62
52
9
116
54
146
96
20
67
30
31
142
132
78
15
80
88
83
94
55
108
25
4
22
74
34
107
65
118
102
101
46
138
44
33
53
144
64
89
104
61
56
3
127
2
131
90
69
143
124
41
123
11
117
27
42
130
75
134
21
92
8
12
112
13
70
98
37
135
109
66
60
93
39
57
35
58
59
115
122
85
43
32
103
95
29
79
84
91
86
126
26
99
128
77
97
87
24
100
45
137
68
50

> <PUBCHEM_MMFF94_PARTIAL_CHARGES>
14
1 -0.68
10 0.14
11 -0.29
12 -0.3
21 0.15
23 0.15
29 0.15
30 0.4
31 0.15
32 0.15
4 0.14
6 -0.29
7 0.42
8 -0.29

> <PUBCHEM_EFFECTIVE_ROTOR_COUNT>
7

> <PUBCHEM_PHARMACOPHORE_FEATURES>
5
1 1 acceptor
1 1 donor
1 12 hydrophobe
1 9 hydrophobe
5 2 3 4 5 6 hydrophobe

> <PUBCHEM_HEAVY_ATOM_COUNT>
12

> <PUBCHEM_ATOM_DEF_STEREO_COUNT>
0

> <PUBCHEM_ATOM_UDEF_STEREO_COUNT>
0

> <PUBCHEM_BOND_DEF_STEREO_COUNT>
0

> <PUBCHEM_BOND_UDEF_STEREO_COUNT>
1

> <PUBCHEM_ISOTOPIC_ATOM_COUNT>
0

> <PUBCHEM_COMPONENT_COUNT>
1

> <PUBCHEM_CACTVS_TAUTO_COUNT>
1

> <PUBCHEM_CONFORMER_ID>
002E0B3E00000001

> <PUBCHEM_MMFF94_ENERGY>
1.7779

> <PUBCHEM_FEATURE_SELFOVERLAP>
25.373

> <PUBCHEM_SHAPE_FINGERPRINT>
11458722 379 18122070801768828718
1420 336 18410294722320775234
14251705 54 18050011287632430754
14251711 518 18337945804951531562
14916288 52 18340213002339114806
17977361 122 18120930608126312098
18619055 16 18408323297961467300
19107657 46 18412548721394586020
20201158 50 18340767151703417370
58554843 112 18056197114406997920
598444 67 18333735745074755723

> <PUBCHEM_SHAPE_MULTIPOLES>
241.09
5.83
3.03
0.82
3.23
0.95
0.1
2.28
0.82
0.4
-0.33
-0.32
-0.09
0.41

> <PUBCHEM_SHAPE_SELFOVERLAP>
439.209

> <PUBCHEM_SHAPE_VOLUME>
153.5

> <PUBCHEM_COORDINATE_TYPE>
2
5
10

$$$$
