3017923
  -OEChem-11232109273D

 33 32  0     1  0  0  0  0  0999 V2000
   -4.1570    2.0786    0.3010 N   0  0  0  0  0  0  0  0  0  0  0  0
    0.1959   -0.6656    0.2593 C   0  0  0  0  0  0  0  0  0  0  0  0
    1.4087    0.1066   -0.2634 C   0  0  0  0  0  0  0  0  0  0  0  0
   -1.1096   -0.0985   -0.3026 C   0  0  0  0  0  0  0  0  0  0  0  0
    2.7119   -0.4390    0.3250 C   0  0  0  0  0  0  0  0  0  0  0  0
   -2.3207   -0.9014    0.1889 C   0  0  0  0  0  0  0  0  0  0  0  0
    3.9257    0.3133   -0.2252 C   0  0  0  0  0  0  0  0  0  0  0  0
   -3.6488   -0.4078   -0.4110 C   0  0  1  0  0  0  0  0  0  0  0  0
    5.2588   -0.2095    0.3143 C   0  0  0  0  0  0  0  0  0  0  0  0
   -4.7988   -1.3122    0.0350 C   0  0  0  0  0  0  0  0  0  0  0  0
    6.4667    0.5516   -0.2095 C   0  0  0  0  0  0  0  0  0  0  0  0
   -3.9328    0.9838   -0.0119 C   0  0  0  0  0  0  0  0  0  0  0  0
    0.2889   -1.7227   -0.0182 H   0  0  0  0  0  0  0  0  0  0  0  0
    0.1731   -0.6195    1.3549 H   0  0  0  0  0  0  0  0  0  0  0  0
    1.3080    1.1683   -0.0074 H   0  0  0  0  0  0  0  0  0  0  0  0
    1.4414    0.0392   -1.3576 H   0  0  0  0  0  0  0  0  0  0  0  0
   -1.2011    0.9519   -0.0033 H   0  0  0  0  0  0  0  0  0  0  0  0
   -1.0771   -0.1226   -1.3987 H   0  0  0  0  0  0  0  0  0  0  0  0
    2.6900   -0.3514    1.4179 H   0  0  0  0  0  0  0  0  0  0  0  0
    2.8055   -1.5054    0.0872 H   0  0  0  0  0  0  0  0  0  0  0  0
   -2.3625   -0.8530    1.2852 H   0  0  0  0  0  0  0  0  0  0  0  0
   -2.1788   -1.9568   -0.0767 H   0  0  0  0  0  0  0  0  0  0  0  0
    3.9317    0.2417   -1.3199 H   0  0  0  0  0  0  0  0  0  0  0  0
    3.8321    1.3783    0.0215 H   0  0  0  0  0  0  0  0  0  0  0  0
   -3.5821   -0.4547   -1.5051 H   0  0  0  0  0  0  0  0  0  0  0  0
    5.2540   -0.1528    1.4094 H   0  0  0  0  0  0  0  0  0  0  0  0
    5.3660   -1.2688    0.0517 H   0  0  0  0  0  0  0  0  0  0  0  0
   -4.9161   -1.3052    1.1248 H   0  0  0  0  0  0  0  0  0  0  0  0
   -4.6257   -2.3465   -0.2808 H   0  0  0  0  0  0  0  0  0  0  0  0
   -5.7484   -0.9831   -0.4022 H   0  0  0  0  0  0  0  0  0  0  0  0
    7.3889    0.1356    0.2077 H   0  0  0  0  0  0  0  0  0  0  0  0
    6.5256    0.4864   -1.3005 H   0  0  0  0  0  0  0  0  0  0  0  0
    6.4125    1.6087    0.0691 H   0  0  0  0  0  0  0  0  0  0  0  0
  1 12  3  0  0  0  0
  2  3  1  0  0  0  0
  2  4  1  0  0  0  0
  2 13  1  0  0  0  0
  2 14  1  0  0  0  0
  3  5  1  0  0  0  0
  3 15  1  0  0  0  0
  3 16  1  0  0  0  0
  4  6  1  0  0  0  0
  4 17  1  0  0  0  0
  4 18  1  0  0  0  0
  5  7  1  0  0  0  0
  5 19  1  0  0  0  0
  5 20  1  0  0  0  0
  6  8  1  0  0  0  0
  6 21  1  0  0  0  0
  6 22  1  0  0  0  0
  7  9  1  0  0  0  0
  7 23  1  0  0  0  0
  7 24  1  0  0  0  0
  8 10  1  0  0  0  0
  8 12  1  0  0  0  0
  8 25  1  0  0  0  0
  9 11  1  0  0  0  0
  9 26  1  0  0  0  0
  9 27  1  0  0  0  0
 10 28  1  0  0  0  0
 10 29  1  0  0  0  0
 10 30  1  0  0  0  0
 11 31  1  0  0  0  0
 11 32  1  0  0  0  0
 11 33  1  0  0  0  0
M  END
> <PUBCHEM_COMPOUND_CID>
3017923

> <PUBCHEM_CONFORMER_RMSD>
0.8

> <PUBCHEM_CONFORMER_DIVERSEORDER>
1
155
146
111
34
77
29
119
87
61
35
8
140
72
96
85
158
55
51
118
38
159
2
4
50
10
40
95
112
26
113
94
98
28
12
70
135
7
123
133
63
24
32
138
68
160
142
74
57
137
5
84
67
27
144
129
11
154
52
149
6
89
9
153
20
143
88
76
120
22
99
3
48
122
13
139
125
46
121
134
148
104
49
80
100
78
124
108
75
36
60
150
115
90
19
23
56
151
69
109
42
136
59
152
15
44
91
130
18
107
147
37
71
102
53
21
132
43
106
16
25
126
62
82
128
30
33
117
54
103
65
105
66
86
47
141
79
145
131
14
97
101
116
93
17
45
156
127
73
58
81
157
64
92
31
114
41
39
83
110

> <PUBCHEM_MMFF94_PARTIAL_CHARGES>
3
1 -0.56
12 0.36
8 0.2

> <PUBCHEM_EFFECTIVE_ROTOR_COUNT>
7

> <PUBCHEM_PHARMACOPHORE_FEATURES>
3
1 1 acceptor
1 10 hydrophobe
1 11 hydrophobe

> <PUBCHEM_HEAVY_ATOM_COUNT>
12

> <PUBCHEM_ATOM_DEF_STEREO_COUNT>
0

> <PUBCHEM_ATOM_UDEF_STEREO_COUNT>
1

> <PUBCHEM_BOND_DEF_STEREO_COUNT>
0

> <PUBCHEM_BOND_UDEF_STEREO_COUNT>
0

> <PUBCHEM_ISOTOPIC_ATOM_COUNT>
0

> <PUBCHEM_COMPONENT_COUNT>
1

> <PUBCHEM_CACTVS_TAUTO_COUNT>
1

> <PUBCHEM_CONFORMER_ID>
002E0CC300000001

> <PUBCHEM_MMFF94_ENERGY>
-0.1382

> <PUBCHEM_FEATURE_SELFOVERLAP>
15.223

> <PUBCHEM_SHAPE_FINGERPRINT>
10680689 15 17917988404063885495
10912923 1 17967808349575688346
12091667 2 18342738537582105830
14123238 8 17894346692116274454
14251718 22 18343302591384268218
15501527 16 18342742879968174025
15778101 99 18342462491671073161
17834072 33 18411136982834835510
17834076 25 18260265265920976902
19433438 28 18272366511864675297
20281389 69 18260264118706175788
20621476 66 18270689658138843033
20645477 56 18273215266781230785
20645477 70 16773810156050184110
21426921 1 18342454855572356375
23402539 116 18342171168086088732
23402655 69 18343581828825397110
26918003 58 12035445042919501998
42788 4 18410292528024594150
441001 317 18272088275277754281
7062679 6 18336552624977102508

> <PUBCHEM_SHAPE_MULTIPOLES>
241.97
14.7
1.29
0.68
14.49
0.51
-0.01
2.08
-0.07
-2.18
0.13
0.03
-0.01
-0.37

> <PUBCHEM_SHAPE_SELFOVERLAP>
435.915

> <PUBCHEM_SHAPE_VOLUME>
154.6

> <PUBCHEM_COORDINATE_TYPE>
2
5
10

$$$$
