3018539
  -OEChem-11232109153D

 21 20  0     0  0  0  0  0  0999 V2000
   -3.4432    0.0489   -0.5750 S   0  0  0  0  0  0  0  0  0  0  0  0
   -0.7612    0.0578   -0.2603 O   0  0  0  0  0  0  0  0  0  0  0  0
    0.6259   -1.6539    0.4240 O   0  0  0  0  0  0  0  0  0  0  0  0
    2.9196   -0.0406    0.1220 C   0  0  0  0  0  0  0  0  0  0  0  0
    1.5317    0.5232   -0.1717 C   0  0  0  0  0  0  0  0  0  0  0  0
    4.0059    0.9923   -0.1292 C   0  0  0  0  0  0  0  0  0  0  0  0
    0.4457   -0.5057    0.0427 C   0  0  0  0  0  0  0  0  0  0  0  0
   -1.9039   -0.7965   -0.1089 C   0  0  0  0  0  0  0  0  0  0  0  0
   -3.4205    1.3745    0.6564 C   0  0  0  0  0  0  0  0  0  0  0  0
    2.9731   -0.3777    1.1641 H   0  0  0  0  0  0  0  0  0  0  0  0
    3.1067   -0.9207   -0.5050 H   0  0  0  0  0  0  0  0  0  0  0  0
    1.3311    1.3755    0.4870 H   0  0  0  0  0  0  0  0  0  0  0  0
    1.4826    0.8580   -1.2141 H   0  0  0  0  0  0  0  0  0  0  0  0
    3.8662    1.8711    0.5083 H   0  0  0  0  0  0  0  0  0  0  0  0
    4.0013    1.3206   -1.1735 H   0  0  0  0  0  0  0  0  0  0  0  0
    4.9907    0.5675    0.0888 H   0  0  0  0  0  0  0  0  0  0  0  0
   -1.9815   -1.1351    0.9298 H   0  0  0  0  0  0  0  0  0  0  0  0
   -1.7900   -1.6674   -0.7628 H   0  0  0  0  0  0  0  0  0  0  0  0
   -2.5537    2.0233    0.5068 H   0  0  0  0  0  0  0  0  0  0  0  0
   -3.3990    0.9566    1.6662 H   0  0  0  0  0  0  0  0  0  0  0  0
   -4.3258    1.9781    0.5501 H   0  0  0  0  0  0  0  0  0  0  0  0
  1  8  1  0  0  0  0
  1  9  1  0  0  0  0
  2  7  1  0  0  0  0
  2  8  1  0  0  0  0
  3  7  2  0  0  0  0
  4  5  1  0  0  0  0
  4  6  1  0  0  0  0
  4 10  1  0  0  0  0
  4 11  1  0  0  0  0
  5  7  1  0  0  0  0
  5 12  1  0  0  0  0
  5 13  1  0  0  0  0
  6 14  1  0  0  0  0
  6 15  1  0  0  0  0
  6 16  1  0  0  0  0
  8 17  1  0  0  0  0
  8 18  1  0  0  0  0
  9 19  1  0  0  0  0
  9 20  1  0  0  0  0
  9 21  1  0  0  0  0
M  END
> <PUBCHEM_COMPOUND_CID>
3018539

> <PUBCHEM_CONFORMER_RMSD>
0.6

> <PUBCHEM_CONFORMER_DIVERSEORDER>
1
54
111
95
117
79
62
19
121
23
60
116
96
4
105
114
118
71
53
122
31
6
119
40
21
120
87
113
30
89
88
84
100
74
77
38
11
68
50
75
43
55
41
44
107
18
65
106
70
103
86
24
63
16
12
8
14
52
91
36
47
15
101
112
108
94
37
29
10
82
58
69
64
56
93
2
72
51
5
85
67
25
83
7
59
90
80
28
57
73
66
34
104
92
3
81
102
13
9
99
17
76
115
27
42
61
39
98
78
110
97
109
20
26
48
45
22
33
49
46
32
35

> <PUBCHEM_MMFF94_PARTIAL_CHARGES>
7
1 -0.46
2 -0.43
3 -0.57
5 0.06
7 0.66
8 0.51
9 0.23

> <PUBCHEM_EFFECTIVE_ROTOR_COUNT>
5

> <PUBCHEM_PHARMACOPHORE_FEATURES>
3
1 3 acceptor
1 6 hydrophobe
1 9 hydrophobe

> <PUBCHEM_HEAVY_ATOM_COUNT>
9

> <PUBCHEM_ATOM_DEF_STEREO_COUNT>
0

> <PUBCHEM_ATOM_UDEF_STEREO_COUNT>
0

> <PUBCHEM_BOND_DEF_STEREO_COUNT>
0

> <PUBCHEM_BOND_UDEF_STEREO_COUNT>
0

> <PUBCHEM_ISOTOPIC_ATOM_COUNT>
0

> <PUBCHEM_COMPONENT_COUNT>
1

> <PUBCHEM_CACTVS_TAUTO_COUNT>
1

> <PUBCHEM_CONFORMER_ID>
002E0F2B00000001

> <PUBCHEM_MMFF94_ENERGY>
5.3583

> <PUBCHEM_FEATURE_SELFOVERLAP>
15.223

> <PUBCHEM_SHAPE_FINGERPRINT>
10149128 111 18408890633044803773
10219947 1 17530962479739061542
11062470 55 18059856194604094516
12346645 44 18410292497411170953
12932764 1 16443334403748405614
14325111 11 18408321116133703734
14390081 3 18343580737777070817
15775835 57 18270966743753552257
170605 34 18410013208488619275
177051 138 11314318247462685049
20828058 44 12035724319031329444
21293036 1 14979954787211395493
22485316 2 9295296023255931092
23402655 69 18341881958337664277

> <PUBCHEM_SHAPE_MULTIPOLES>
177.33
7.24
1.3
0.73
1.04
0.04
0.01
-3.14
0.29
-0.3
-0.23
-0.29
-0.05
-0.49

> <PUBCHEM_SHAPE_SELFOVERLAP>
307.108

> <PUBCHEM_SHAPE_VOLUME>
119.2

> <PUBCHEM_COORDINATE_TYPE>
2
5
10

$$$$
