3018362
  -OEChem-11232109073D

 44 44  0     0  0  0  0  0  0999 V2000
    1.4196   -1.1913    0.1627 O   0  0  0  0  0  0  0  0  0  0  0  0
    3.3278   -2.0105   -0.8309 O   0  0  0  0  0  0  0  0  0  0  0  0
    5.5119   -0.5929    0.0878 N   0  0  0  0  0  0  0  0  0  0  0  0
   -3.7888   -0.3232   -0.2583 C   0  0  0  0  0  0  0  0  0  0  0  0
   -2.9178   -1.3588    0.4559 C   0  0  0  0  0  0  0  0  0  0  0  0
   -5.2123   -0.2339    0.3005 C   0  0  0  0  0  0  0  0  0  0  0  0
   -1.5001   -1.3827   -0.1209 C   0  0  0  0  0  0  0  0  0  0  0  0
   -6.1258    0.8026   -0.3607 C   0  0  0  0  0  0  0  0  0  0  0  0
   -0.6192   -2.3982    0.6128 C   0  0  0  0  0  0  0  0  0  0  0  0
   -7.5137    0.8849    0.2752 C   0  0  0  0  0  0  0  0  0  0  0  0
    0.7910   -2.4588    0.0386 C   0  0  0  0  0  0  0  0  0  0  0  0
   -8.3484    1.9885   -0.3564 C   0  0  0  0  0  0  0  0  0  0  0  0
    2.6928   -1.1043   -0.3141 C   0  0  0  0  0  0  0  0  0  0  0  0
    3.2348    0.2649   -0.1244 C   0  0  0  0  0  0  0  0  0  0  0  0
    4.5989    0.4850    0.0676 C   0  0  0  0  0  0  0  0  0  0  0  0
    2.3499    1.3430   -0.1406 C   0  0  0  0  0  0  0  0  0  0  0  0
    5.0778    1.7834    0.2431 C   0  0  0  0  0  0  0  0  0  0  0  0
    2.8289    2.6412    0.0351 C   0  0  0  0  0  0  0  0  0  0  0  0
    4.1927    2.8614    0.2270 C   0  0  0  0  0  0  0  0  0  0  0  0
   -3.8403   -0.5657   -1.3268 H   0  0  0  0  0  0  0  0  0  0  0  0
   -3.3161    0.6636   -0.1805 H   0  0  0  0  0  0  0  0  0  0  0  0
   -3.3740   -2.3512    0.3594 H   0  0  0  0  0  0  0  0  0  0  0  0
   -2.8757   -1.1241    1.5263 H   0  0  0  0  0  0  0  0  0  0  0  0
   -5.1504   -0.0104    1.3733 H   0  0  0  0  0  0  0  0  0  0  0  0
   -5.6852   -1.2208    0.2183 H   0  0  0  0  0  0  0  0  0  0  0  0
   -1.5417   -1.6354   -1.1873 H   0  0  0  0  0  0  0  0  0  0  0  0
   -1.0599   -0.3815   -0.0426 H   0  0  0  0  0  0  0  0  0  0  0  0
   -6.2260    0.5644   -1.4269 H   0  0  0  0  0  0  0  0  0  0  0  0
   -5.6422    1.7856   -0.3010 H   0  0  0  0  0  0  0  0  0  0  0  0
   -0.5636   -2.1156    1.6713 H   0  0  0  0  0  0  0  0  0  0  0  0
   -1.0738   -3.3940    0.5586 H   0  0  0  0  0  0  0  0  0  0  0  0
   -8.0309   -0.0748    0.1617 H   0  0  0  0  0  0  0  0  0  0  0  0
   -7.4192    1.0781    1.3500 H   0  0  0  0  0  0  0  0  0  0  0  0
    1.3720   -3.2078    0.5893 H   0  0  0  0  0  0  0  0  0  0  0  0
    0.7518   -2.7490   -1.0181 H   0  0  0  0  0  0  0  0  0  0  0  0
   -7.8718    2.9653   -0.2258 H   0  0  0  0  0  0  0  0  0  0  0  0
   -8.4843    1.8125   -1.4283 H   0  0  0  0  0  0  0  0  0  0  0  0
   -9.3379    2.0286    0.1095 H   0  0  0  0  0  0  0  0  0  0  0  0
    1.2838    1.2068   -0.3019 H   0  0  0  0  0  0  0  0  0  0  0  0
    6.1382    1.9694    0.3935 H   0  0  0  0  0  0  0  0  0  0  0  0
    2.1406    3.4811    0.0192 H   0  0  0  0  0  0  0  0  0  0  0  0
    4.5656    3.8724    0.3629 H   0  0  0  0  0  0  0  0  0  0  0  0
    5.1921   -1.5449   -0.0240 H   0  0  0  0  0  0  0  0  0  0  0  0
    6.4971   -0.4125    0.2303 H   0  0  0  0  0  0  0  0  0  0  0  0
  1 11  1  0  0  0  0
  1 13  1  0  0  0  0
  2 13  2  0  0  0  0
  3 15  1  0  0  0  0
  3 43  1  0  0  0  0
  3 44  1  0  0  0  0
  4  5  1  0  0  0  0
  4  6  1  0  0  0  0
  4 20  1  0  0  0  0
  4 21  1  0  0  0  0
  5  7  1  0  0  0  0
  5 22  1  0  0  0  0
  5 23  1  0  0  0  0
  6  8  1  0  0  0  0
  6 24  1  0  0  0  0
  6 25  1  0  0  0  0
  7  9  1  0  0  0  0
  7 26  1  0  0  0  0
  7 27  1  0  0  0  0
  8 10  1  0  0  0  0
  8 28  1  0  0  0  0
  8 29  1  0  0  0  0
  9 11  1  0  0  0  0
  9 30  1  0  0  0  0
  9 31  1  0  0  0  0
 10 12  1  0  0  0  0
 10 32  1  0  0  0  0
 10 33  1  0  0  0  0
 11 34  1  0  0  0  0
 11 35  1  0  0  0  0
 12 36  1  0  0  0  0
 12 37  1  0  0  0  0
 12 38  1  0  0  0  0
 13 14  1  0  0  0  0
 14 15  1  0  0  0  0
 14 16  2  0  0  0  0
 15 17  2  0  0  0  0
 16 18  1  0  0  0  0
 16 39  1  0  0  0  0
 17 19  1  0  0  0  0
 17 40  1  0  0  0  0
 18 19  2  0  0  0  0
 18 41  1  0  0  0  0
 19 42  1  0  0  0  0
M  END
> <PUBCHEM_COMPOUND_CID>
3018362

> <PUBCHEM_CONFORMER_RMSD>
1.2

> <PUBCHEM_CONFORMER_DIVERSEORDER>
1
52
61
81
72
9
32
71
82
37
54
28
75
10
13
22
20
73
14
51
63
31
42
47
65
16
66
87
12
7
38
3
49
35
15
56
76
26
44
39
60
23
6
74
41
25
64
53
62
4
27
46
24
19
67
59
29
69
45
77
86
83
84
57
11
2
79
80
8
85
43
34
5
21
17
18
40
55
48
33
30
68
36
50
78
58
70

> <PUBCHEM_MMFF94_PARTIAL_CHARGES>
17
1 -0.43
11 0.28
13 0.63
14 0.09
15 0.1
16 -0.15
17 -0.15
18 -0.15
19 -0.15
2 -0.57
3 -0.9
39 0.15
40 0.15
41 0.15
42 0.15
43 0.4
44 0.4

> <PUBCHEM_EFFECTIVE_ROTOR_COUNT>
10

> <PUBCHEM_PHARMACOPHORE_FEATURES>
5
1 12 hydrophobe
1 2 acceptor
1 3 cation
1 3 donor
6 14 15 16 17 18 19 rings

> <PUBCHEM_HEAVY_ATOM_COUNT>
19

> <PUBCHEM_ATOM_DEF_STEREO_COUNT>
0

> <PUBCHEM_ATOM_UDEF_STEREO_COUNT>
0

> <PUBCHEM_BOND_DEF_STEREO_COUNT>
0

> <PUBCHEM_BOND_UDEF_STEREO_COUNT>
0

> <PUBCHEM_ISOTOPIC_ATOM_COUNT>
0

> <PUBCHEM_COMPONENT_COUNT>
1

> <PUBCHEM_CACTVS_TAUTO_COUNT>
2

> <PUBCHEM_CONFORMER_ID>
002E0E7A00000001

> <PUBCHEM_MMFF94_ENERGY>
39.4805

> <PUBCHEM_FEATURE_SELFOVERLAP>
25.371

> <PUBCHEM_SHAPE_FINGERPRINT>
10411042 1 17907016171662983766
12778500 126 17531517711942266112
13167372 99 18412544301752029633
13402501 40 18334573555634023653
13955234 65 17970343724991078299
14429380 56 18336815422032015229
14931854 50 17988654007464521713
15183329 4 18272371962816945177
15419008 145 18116421557937620920
15483637 11 17977383841840282973
16087824 20 18409730651776892188
17810953 82 18335704970030824709
18335252 114 18340762650852056551
20157964 124 18343586222545474311
20715895 44 18411418427287858881
21315763 76 18272936016233628521
21585482 111 18190743021491789853
270888 7 18338796826845519201
2838139 119 18410285913690608063
335352 9 18411421718092832606
3472631 163 18343584049466141695
445580 126 18411692171771829841
465052 167 10953450830218170386
5104073 3 18041835233216228162
5312510 48 18412825789904052409
5911458 16 17774454772515653921
59682541 35 18113913659179508321
59682541 52 17346050990994001374

> <PUBCHEM_SHAPE_MULTIPOLES>
374.29
19.56
3.18
0.7
41.47
0.45
0
15.4
0.54
-2.21
-0.12
0.09
-0.08
0.96

> <PUBCHEM_SHAPE_SELFOVERLAP>
739.202

> <PUBCHEM_SHAPE_VOLUME>
222.6

> <PUBCHEM_COORDINATE_TYPE>
2
5
10

$$$$
