3018619
  -OEChem-11232109233D

 43 42  0     0  0  0  0  0  0999 V2000
    7.6150    1.1292   -0.4075 O   0  0  0  0  0  0  0  0  0  0  0  0
   -2.5673    0.4802   -0.0316 C   0  0  0  0  0  0  0  0  0  0  0  0
   -1.3456   -0.4052    0.2244 C   0  0  0  0  0  0  0  0  0  0  0  0
   -3.9022   -0.2419    0.1831 C   0  0  0  0  0  0  0  0  0  0  0  0
   -0.0444    0.3648   -0.0140 C   0  0  0  0  0  0  0  0  0  0  0  0
   -5.1214    0.6684   -0.0007 C   0  0  0  0  0  0  0  0  0  0  0  0
    1.1784   -0.5262    0.2108 C   0  0  0  0  0  0  0  0  0  0  0  0
   -6.4642   -0.0515    0.2320 C   0  0  0  0  0  0  0  0  0  0  0  0
    2.4793    0.2517    0.0048 C   0  0  0  0  0  0  0  0  0  0  0  0
    3.7015   -0.6479    0.1970 C   0  0  0  0  0  0  0  0  0  0  0  0
    5.0018    0.1203   -0.0415 C   0  0  0  0  0  0  0  0  0  0  0  0
   -6.6084   -1.2109   -0.7577 C   0  0  0  0  0  0  0  0  0  0  0  0
   -7.6644    0.8876    0.1006 C   0  0  0  0  0  0  0  0  0  0  0  0
    6.2207   -0.7689    0.1826 C   0  0  0  0  0  0  0  0  0  0  0  0
    7.5211   -0.0495   -0.0824 C   0  0  0  0  0  0  0  0  0  0  0  0
   -2.5308    0.8636   -1.0590 H   0  0  0  0  0  0  0  0  0  0  0  0
   -2.5227    1.3521    0.6329 H   0  0  0  0  0  0  0  0  0  0  0  0
   -1.3715   -0.7774    1.2556 H   0  0  0  0  0  0  0  0  0  0  0  0
   -1.3839   -1.2793   -0.4368 H   0  0  0  0  0  0  0  0  0  0  0  0
   -3.9402   -1.0786   -0.5222 H   0  0  0  0  0  0  0  0  0  0  0  0
   -3.9228   -0.6706    1.1925 H   0  0  0  0  0  0  0  0  0  0  0  0
   -0.0007    1.2278    0.6616 H   0  0  0  0  0  0  0  0  0  0  0  0
   -0.0295    0.7552   -1.0389 H   0  0  0  0  0  0  0  0  0  0  0  0
   -5.0450    1.5096    0.6997 H   0  0  0  0  0  0  0  0  0  0  0  0
   -5.1030    1.0995   -1.0098 H   0  0  0  0  0  0  0  0  0  0  0  0
    1.1541   -0.9359    1.2279 H   0  0  0  0  0  0  0  0  0  0  0  0
    1.1436   -1.3765   -0.4812 H   0  0  0  0  0  0  0  0  0  0  0  0
   -6.4714   -0.4634    1.2491 H   0  0  0  0  0  0  0  0  0  0  0  0
    2.5236    1.0896    0.7111 H   0  0  0  0  0  0  0  0  0  0  0  0
    2.4944    0.6789   -1.0053 H   0  0  0  0  0  0  0  0  0  0  0  0
    3.6464   -1.4974   -0.4947 H   0  0  0  0  0  0  0  0  0  0  0  0
    3.6971   -1.0584    1.2141 H   0  0  0  0  0  0  0  0  0  0  0  0
    5.0499    0.9862    0.6306 H   0  0  0  0  0  0  0  0  0  0  0  0
    5.0142    0.5154   -1.0650 H   0  0  0  0  0  0  0  0  0  0  0  0
   -6.4646   -0.8771   -1.7909 H   0  0  0  0  0  0  0  0  0  0  0  0
   -5.8956   -2.0140   -0.5492 H   0  0  0  0  0  0  0  0  0  0  0  0
   -7.6075   -1.6557   -0.6869 H   0  0  0  0  0  0  0  0  0  0  0  0
   -7.7247    1.3145   -0.9062 H   0  0  0  0  0  0  0  0  0  0  0  0
   -8.6009    0.3575    0.3031 H   0  0  0  0  0  0  0  0  0  0  0  0
   -7.5860    1.7142    0.8143 H   0  0  0  0  0  0  0  0  0  0  0  0
    6.2473   -1.1311    1.2159 H   0  0  0  0  0  0  0  0  0  0  0  0
    6.1863   -1.6379   -0.4834 H   0  0  0  0  0  0  0  0  0  0  0  0
    8.4272   -0.6670    0.0439 H   0  0  0  0  0  0  0  0  0  0  0  0
  1 15  2  0  0  0  0
  2  3  1  0  0  0  0
  2  4  1  0  0  0  0
  2 16  1  0  0  0  0
  2 17  1  0  0  0  0
  3  5  1  0  0  0  0
  3 18  1  0  0  0  0
  3 19  1  0  0  0  0
  4  6  1  0  0  0  0
  4 20  1  0  0  0  0
  4 21  1  0  0  0  0
  5  7  1  0  0  0  0
  5 22  1  0  0  0  0
  5 23  1  0  0  0  0
  6  8  1  0  0  0  0
  6 24  1  0  0  0  0
  6 25  1  0  0  0  0
  7  9  1  0  0  0  0
  7 26  1  0  0  0  0
  7 27  1  0  0  0  0
  8 12  1  0  0  0  0
  8 13  1  0  0  0  0
  8 28  1  0  0  0  0
  9 10  1  0  0  0  0
  9 29  1  0  0  0  0
  9 30  1  0  0  0  0
 10 11  1  0  0  0  0
 10 31  1  0  0  0  0
 10 32  1  0  0  0  0
 11 14  1  0  0  0  0
 11 33  1  0  0  0  0
 11 34  1  0  0  0  0
 12 35  1  0  0  0  0
 12 36  1  0  0  0  0
 12 37  1  0  0  0  0
 13 38  1  0  0  0  0
 13 39  1  0  0  0  0
 13 40  1  0  0  0  0
 14 15  1  0  0  0  0
 14 41  1  0  0  0  0
 14 42  1  0  0  0  0
 15 43  1  0  0  0  0
M  END
> <PUBCHEM_COMPOUND_CID>
3018619

> <PUBCHEM_CONFORMER_RMSD>
1.2

> <PUBCHEM_CONFORMER_DIVERSEORDER>
1
42
31
44
25
12
4
51
20
9
54
50
2
23
40
3
13
29
19
52
46
8
38
24
39
32
18
16
6
33
11
34
14
43
10
49
21
45
26
28
7
37
5
41
53
22
30
15
48
47
35
27
17
36

> <PUBCHEM_MMFF94_PARTIAL_CHARGES>
4
1 -0.57
14 0.06
15 0.45
43 0.06

> <PUBCHEM_EFFECTIVE_ROTOR_COUNT>
11

> <PUBCHEM_PHARMACOPHORE_FEATURES>
2
1 1 acceptor
3 8 12 13 hydrophobe

> <PUBCHEM_HEAVY_ATOM_COUNT>
15

> <PUBCHEM_ATOM_DEF_STEREO_COUNT>
0

> <PUBCHEM_ATOM_UDEF_STEREO_COUNT>
0

> <PUBCHEM_BOND_DEF_STEREO_COUNT>
0

> <PUBCHEM_BOND_UDEF_STEREO_COUNT>
0

> <PUBCHEM_ISOTOPIC_ATOM_COUNT>
0

> <PUBCHEM_COMPONENT_COUNT>
1

> <PUBCHEM_CACTVS_TAUTO_COUNT>
2

> <PUBCHEM_CONFORMER_ID>
002E0F7B00000001

> <PUBCHEM_MMFF94_ENERGY>
2.8677

> <PUBCHEM_FEATURE_SELFOVERLAP>
10.148

> <PUBCHEM_SHAPE_FINGERPRINT>
10066227 49 17631741461264169334
10968037 39 18408885135998101411
11315181 36 18131072641325734681
11638347 137 15791725288194902160
12091667 2 18334295362644823097
13533116 47 17822281341515246826
14123256 10 18410293605396675720
14251764 18 18408602565340539130
14251764 46 18410292505879799195
14729087 3 14129051513600364767
15716309 27 18412260623135466095
17834076 25 18410855455917668538
18006028 8 18411136935105314197
20281389 69 17748825202988477204
21150785 3 18410855468733933658
21315763 28 18410573960173055104
22224240 67 16950282918816424018
23402539 116 18342171168845639973
23521765 1 18341895186050711562
246663 6 14908181966938230263
28498 318 10879999047263168344
33684 2 18408040697850745314
42788 4 18410292501801103289
57583515 80 18333452045520977971
59755656 520 18187640328031118379
67123 10 18410575101848229359
8209 1 18410856555344822272

> <PUBCHEM_SHAPE_MULTIPOLES>
302.82
26.21
0.99
0.68
7.91
0.05
0.02
-2.03
2.09
-0.44
0.09
-0.19
0.04
-0.71

> <PUBCHEM_SHAPE_SELFOVERLAP>
546.448

> <PUBCHEM_SHAPE_VOLUME>
194.6

> <PUBCHEM_COORDINATE_TYPE>
2
5
10

$$$$
