3018771
  -OEChem-11232108423D

 32 31  0     0  0  0  0  0  0999 V2000
    4.0669    0.3738   -0.4530 O   0  0  0  0  0  0  0  0  0  0  0  0
    3.2596   -0.2589    1.6174 O   0  0  0  0  0  0  0  0  0  0  0  0
   -2.9120   -1.5528   -0.4688 C   0  0  0  0  0  0  0  0  0  0  0  0
   -5.7858    1.0622   -0.0426 C   0  0  0  0  0  0  0  0  0  0  0  0
   -4.0010   -0.6931    0.1034 C   0  0  0  0  0  0  0  0  0  0  0  0
   -4.6902    0.2096   -0.6106 C   0  0  0  0  0  0  0  0  0  0  0  0
   -1.6032   -1.3254    0.2314 C   0  0  0  0  0  0  0  0  0  0  0  0
   -5.2407    2.3713    0.5070 C   0  0  0  0  0  0  0  0  0  0  0  0
   -0.4938   -0.8972   -0.3901 C   0  0  0  0  0  0  0  0  0  0  0  0
    5.3586    0.6201    0.1129 C   0  0  0  0  0  0  0  0  0  0  0  0
    0.7639   -0.6855    0.2916 C   0  0  0  0  0  0  0  0  0  0  0  0
    1.8654   -0.2575   -0.3398 C   0  0  0  0  0  0  0  0  0  0  0  0
    6.2931    1.0948   -0.9794 C   0  0  0  0  0  0  0  0  0  0  0  0
    3.1193   -0.0614    0.4208 C   0  0  0  0  0  0  0  0  0  0  0  0
   -3.1960   -2.6042   -0.3412 H   0  0  0  0  0  0  0  0  0  0  0  0
   -2.8111   -1.3877   -1.5486 H   0  0  0  0  0  0  0  0  0  0  0  0
   -6.3126    0.5248    0.7550 H   0  0  0  0  0  0  0  0  0  0  0  0
   -6.5256    1.2629   -0.8258 H   0  0  0  0  0  0  0  0  0  0  0  0
   -4.2477   -0.8388    1.1528 H   0  0  0  0  0  0  0  0  0  0  0  0
   -4.4472    0.3625   -1.6591 H   0  0  0  0  0  0  0  0  0  0  0  0
   -1.5754   -1.5412    1.2978 H   0  0  0  0  0  0  0  0  0  0  0  0
   -4.5293    2.1962    1.3212 H   0  0  0  0  0  0  0  0  0  0  0  0
   -4.7312    2.9467   -0.2735 H   0  0  0  0  0  0  0  0  0  0  0  0
   -6.0579    2.9848    0.8997 H   0  0  0  0  0  0  0  0  0  0  0  0
   -0.5236   -0.6905   -1.4571 H   0  0  0  0  0  0  0  0  0  0  0  0
    5.2763    1.3884    0.8898 H   0  0  0  0  0  0  0  0  0  0  0  0
    5.7456   -0.3045    0.5555 H   0  0  0  0  0  0  0  0  0  0  0  0
    0.7841   -0.8905    1.3591 H   0  0  0  0  0  0  0  0  0  0  0  0
    7.2919    1.2930   -0.5808 H   0  0  0  0  0  0  0  0  0  0  0  0
    6.3713    0.3441   -1.7727 H   0  0  0  0  0  0  0  0  0  0  0  0
    5.9098    2.0093   -1.4439 H   0  0  0  0  0  0  0  0  0  0  0  0
    1.8698   -0.0462   -1.4044 H   0  0  0  0  0  0  0  0  0  0  0  0
  1 10  1  0  0  0  0
  1 14  1  0  0  0  0
  2 14  2  0  0  0  0
  3  5  1  0  0  0  0
  3  7  1  0  0  0  0
  3 15  1  0  0  0  0
  3 16  1  0  0  0  0
  4  6  1  0  0  0  0
  4  8  1  0  0  0  0
  4 17  1  0  0  0  0
  4 18  1  0  0  0  0
  5  6  2  3  0  0  0
  5 19  1  0  0  0  0
  6 20  1  0  0  0  0
  7  9  2  3  0  0  0
  7 21  1  0  0  0  0
  8 22  1  0  0  0  0
  8 23  1  0  0  0  0
  8 24  1  0  0  0  0
  9 11  1  0  0  0  0
  9 25  1  0  0  0  0
 10 13  1  0  0  0  0
 10 26  1  0  0  0  0
 10 27  1  0  0  0  0
 11 12  2  3  0  0  0
 11 28  1  0  0  0  0
 12 14  1  0  0  0  0
 12 32  1  0  0  0  0
 13 29  1  0  0  0  0
 13 30  1  0  0  0  0
 13 31  1  0  0  0  0
M  END
> <PUBCHEM_COMPOUND_CID>
3018771

> <PUBCHEM_CONFORMER_RMSD>
0.8

> <PUBCHEM_CONFORMER_DIVERSEORDER>
1
18
21
8
10
41
25
38
34
43
19
45
31
42
29
14
49
47
22
33
6
40
39
5
36
13
15
9
26
24
20
11
4
37
32
17
2
23
30
16
7
27
12
48
3
35
44
28
46

> <PUBCHEM_MMFF94_PARTIAL_CHARGES>
18
1 -0.43
10 0.28
11 -0.15
12 -0.14
14 0.71
19 0.15
2 -0.57
20 0.15
21 0.15
25 0.15
28 0.15
3 0.28
32 0.15
4 0.14
5 -0.29
6 -0.29
7 -0.29
9 -0.15

> <PUBCHEM_EFFECTIVE_ROTOR_COUNT>
7

> <PUBCHEM_PHARMACOPHORE_FEATURES>
2
1 2 acceptor
1 8 hydrophobe

> <PUBCHEM_HEAVY_ATOM_COUNT>
14

> <PUBCHEM_ATOM_DEF_STEREO_COUNT>
0

> <PUBCHEM_ATOM_UDEF_STEREO_COUNT>
0

> <PUBCHEM_BOND_DEF_STEREO_COUNT>
0

> <PUBCHEM_BOND_UDEF_STEREO_COUNT>
3

> <PUBCHEM_ISOTOPIC_ATOM_COUNT>
0

> <PUBCHEM_COMPONENT_COUNT>
1

> <PUBCHEM_CACTVS_TAUTO_COUNT>
1

> <PUBCHEM_CONFORMER_ID>
002E101300000001

> <PUBCHEM_MMFF94_ENERGY>
9.3278

> <PUBCHEM_FEATURE_SELFOVERLAP>
10.148

> <PUBCHEM_SHAPE_FINGERPRINT>
100836 57 18409168809586650023
10354089 29 17167864170877245582
10730089 173 18413673495608995061
10912923 1 17895463817083470643
117890 112 18410572894577950124
12555020 224 14476963401881233285
12596602 18 17385724673665596937
12670543 26 17703796898890221758
13167372 99 18335139800201816316
13288520 33 9799694796797719239
13740256 8 8070021173337356935
13964095 4 18273220802851527364
14123255 352 18410289182292640877
1420 363 12035443930807711370
14251752 14 18272934899658110670
14251764 18 17967813873125209159
14252887 29 14851597748403694450
14729087 3 18342171189840805232
15048467 5 18259984894344660164
15242439 84 17203328944159077838
15501527 16 18411421704912303865
15716309 27 11025796509071477980
15778101 99 18411985754467153663
15880784 105 11314322637235584901
16079462 125 17346306138032183744
167882 2 17988086565207710255
17834072 8 17060339634288088999
17834076 25 18409447011529450686
18785283 64 13840850884049468734
200 152 13326859941429458491
20281389 69 18409727361330172961
20374829 77 9007052470787970975
20526848 3 18408889508175023805
20621476 66 18409735036748194525
20621476 91 11458714949206997361
20645477 56 18130788971547252607
20645477 70 16343432725619758111
21054139 6 11312056539101757324
212847 35 18412820270559678426
21426921 1 18269834375948157047
23402539 116 18272927254057304358
23402655 69 18343862212358370055
23559900 14 15123218983711346226
23590187 135 10737286848534599627
26918003 58 12612750212259539671
270888 7 18268148644423995417
29717793 49 13038912144155602016
441001 317 18342175570670212057
49783359 22 9079119955376017477
5104073 3 16806443790085395552
542803 24 18187361056108249910
57483677 66 10375879566986638228
59345605 10 7853851681205185165
7062679 6 18408608054214096909
7495541 125 10737291251076960654

> <PUBCHEM_SHAPE_MULTIPOLES>
276.37
16.35
1.68
0.93
5.67
0.64
0.15
10.39
-1.9
-2.7
0.05
0.73
0.04
-1

> <PUBCHEM_SHAPE_SELFOVERLAP>
519.796

> <PUBCHEM_SHAPE_VOLUME>
171.1

> <PUBCHEM_COORDINATE_TYPE>
2
5
10

$$$$
