3018907
  -OEChem-11232109133D

 30 29  0     1  0  0  0  0  0999 V2000
   -0.6970   -0.8376    0.4479 O   0  0  0  0  0  0  0  0  0  0  0  0
   -1.0691    1.4350    0.3219 O   0  0  0  0  0  0  0  0  0  0  0  0
    0.6920   -0.6014    0.6683 C   0  0  2  0  0  0  0  0  0  0  0  0
    1.3008    0.1141   -0.5453 C   0  0  0  0  0  0  0  0  0  0  0  0
   -2.9187   -0.1290    0.0768 C   0  0  0  0  0  0  0  0  0  0  0  0
    1.3531   -1.9563    0.8877 C   0  0  0  0  0  0  0  0  0  0  0  0
    2.7785    0.4043   -0.3971 C   0  0  0  0  0  0  0  0  0  0  0  0
   -1.4715    0.2795    0.2892 C   0  0  0  0  0  0  0  0  0  0  0  0
   -3.7868    1.1140   -0.0775 C   0  0  0  0  0  0  0  0  0  0  0  0
   -3.0505   -1.0422   -1.1391 C   0  0  0  0  0  0  0  0  0  0  0  0
    3.1833    1.3524    0.6949 C   0  0  0  0  0  0  0  0  0  0  0  0
    3.6859   -0.1327   -1.2277 C   0  0  0  0  0  0  0  0  0  0  0  0
    0.8005   -0.0046    1.5822 H   0  0  0  0  0  0  0  0  0  0  0  0
    0.8208    1.0692   -0.7712 H   0  0  0  0  0  0  0  0  0  0  0  0
    1.1148   -0.4958   -1.4407 H   0  0  0  0  0  0  0  0  0  0  0  0
   -3.2446   -0.6640    0.9771 H   0  0  0  0  0  0  0  0  0  0  0  0
    0.8462   -2.4965    1.6955 H   0  0  0  0  0  0  0  0  0  0  0  0
    2.4094   -1.8638    1.1555 H   0  0  0  0  0  0  0  0  0  0  0  0
    1.2687   -2.5856   -0.0054 H   0  0  0  0  0  0  0  0  0  0  0  0
   -4.8410    0.8401   -0.1919 H   0  0  0  0  0  0  0  0  0  0  0  0
   -3.4929    1.7025   -0.9539 H   0  0  0  0  0  0  0  0  0  0  0  0
   -3.7044    1.7633    0.8013 H   0  0  0  0  0  0  0  0  0  0  0  0
   -4.0988   -1.3014   -1.3208 H   0  0  0  0  0  0  0  0  0  0  0  0
   -2.4979   -1.9769   -0.9970 H   0  0  0  0  0  0  0  0  0  0  0  0
   -2.6553   -0.5603   -2.0403 H   0  0  0  0  0  0  0  0  0  0  0  0
    2.9867    0.9173    1.6794 H   0  0  0  0  0  0  0  0  0  0  0  0
    2.6257    2.2907    0.6096 H   0  0  0  0  0  0  0  0  0  0  0  0
    4.2498    1.5982    0.6504 H   0  0  0  0  0  0  0  0  0  0  0  0
    3.3922   -0.8074   -2.0248 H   0  0  0  0  0  0  0  0  0  0  0  0
    4.7436    0.0874   -1.1279 H   0  0  0  0  0  0  0  0  0  0  0  0
  1  3  1  0  0  0  0
  1  8  1  0  0  0  0
  2  8  2  0  0  0  0
  3  4  1  0  0  0  0
  3  6  1  0  0  0  0
  3 13  1  0  0  0  0
  4  7  1  0  0  0  0
  4 14  1  0  0  0  0
  4 15  1  0  0  0  0
  5  8  1  0  0  0  0
  5  9  1  0  0  0  0
  5 10  1  0  0  0  0
  5 16  1  0  0  0  0
  6 17  1  0  0  0  0
  6 18  1  0  0  0  0
  6 19  1  0  0  0  0
  7 11  1  0  0  0  0
  7 12  2  0  0  0  0
  9 20  1  0  0  0  0
  9 21  1  0  0  0  0
  9 22  1  0  0  0  0
 10 23  1  0  0  0  0
 10 24  1  0  0  0  0
 10 25  1  0  0  0  0
 11 26  1  0  0  0  0
 11 27  1  0  0  0  0
 11 28  1  0  0  0  0
 12 29  1  0  0  0  0
 12 30  1  0  0  0  0
M  END
> <PUBCHEM_COMPOUND_CID>
3018907

> <PUBCHEM_CONFORMER_RMSD>
0.6

> <PUBCHEM_CONFORMER_DIVERSEORDER>
1
74
116
117
44
62
47
43
108
102
98
86
31
30
114
2
115
49
10
16
107
80
67
65
35
32
95
4
18
46
5
119
48
34
69
38
3
103
6
96
73
54
55
29
52
64
75
45
40
8
42
56
106
100
53
11
33
24
111
22
7
70
60
39
26
76
20
104
101
28
77
51
118
19
41
71
109
37
90
58
72
61
94
79
81
17
112
87
113
93
110
92
12
97
85
82
120
68
84
50
23
15
91
83
57
21
66
88
36
89
59
14
99
9
105
25
78
13
63
27

> <PUBCHEM_MMFF94_PARTIAL_CHARGES>
11
1 -0.43
11 0.14
12 -0.3
2 -0.57
29 0.15
3 0.28
30 0.15
4 0.14
5 0.06
7 -0.28
8 0.66

> <PUBCHEM_EFFECTIVE_ROTOR_COUNT>
5

> <PUBCHEM_PHARMACOPHORE_FEATURES>
2
1 2 acceptor
3 5 9 10 hydrophobe

> <PUBCHEM_HEAVY_ATOM_COUNT>
12

> <PUBCHEM_ATOM_DEF_STEREO_COUNT>
0

> <PUBCHEM_ATOM_UDEF_STEREO_COUNT>
1

> <PUBCHEM_BOND_DEF_STEREO_COUNT>
0

> <PUBCHEM_BOND_UDEF_STEREO_COUNT>
0

> <PUBCHEM_ISOTOPIC_ATOM_COUNT>
0

> <PUBCHEM_COMPONENT_COUNT>
1

> <PUBCHEM_CACTVS_TAUTO_COUNT>
1

> <PUBCHEM_CONFORMER_ID>
002E109B00000001

> <PUBCHEM_MMFF94_ENERGY>
15.9865

> <PUBCHEM_FEATURE_SELFOVERLAP>
10.148

> <PUBCHEM_SHAPE_FINGERPRINT>
11543360 7 17418089974569577693
12897270 3 18272936015806230205
12932764 1 18412542085469744513
13581323 91 11891340858792483929
13705890 14 16988848297792591638
14325111 11 18409168826523815640
15775835 57 18335706013665413061
16945 1 18114181964262130737
17834069 15 11242512428539014215
18186145 218 18409729577512159676
20279233 1 15195272123614642831
20281407 28 12751245791419580004
20361792 2 12895354373930680410
20671657 53 16700919119376549940
20711985 344 15553613868202977107
20871999 31 17774993635811748735
21119208 17 18131638858826257973
21499 59 17967535704888363622
22485316 2 14620792682542505989
230 275 18113621183683873394
23235685 24 17822015319435000004
23402539 116 18343013411415609252
23402655 69 18343308037286937124
23552423 10 18118395160082393083
23557571 272 16916493745273145554
2748010 2 17901393616398772056
3248919 1 17458343035359566819
528716 315 18412826915042825279
53748568 43 18411697673609390759
57812782 119 18060423516923893996
633830 44 18335988635598930036
7364860 26 18267018358664297858
8030462 33 18335422331038563011
93112 12 17846503620854921500

> <PUBCHEM_SHAPE_MULTIPOLES>
235.22
6.81
1.53
1.06
1.04
0.26
-0.18
-1.68
-1.77
-0.11
0.38
-0.44
0.22
-0.27

> <PUBCHEM_SHAPE_SELFOVERLAP>
443.279

> <PUBCHEM_SHAPE_VOLUME>
147.1

> <PUBCHEM_COORDINATE_TYPE>
2
5
10

$$$$
