3018936
  -OEChem-11232108573D

 24 25  0     1  0  0  0  0  0999 V2000
    0.9691   -1.5821   -0.0726 O   0  0  0  0  0  0  0  0  0  0  0  0
    3.1969   -1.0880    0.2064 O   0  0  0  0  0  0  0  0  0  0  0  0
   -2.5280   -0.1354   -0.2890 C   0  0  1  0  0  0  0  0  0  0  0  0
   -2.0942    1.2414    0.2711 C   0  0  0  0  0  0  0  0  0  0  0  0
   -0.7377    1.7000   -0.2825 C   0  0  0  0  0  0  0  0  0  0  0  0
    0.2838    0.6220   -0.1352 C   0  0  0  0  0  0  0  0  0  0  0  0
   -0.1208   -0.7413   -0.1636 C   0  0  0  0  0  0  0  0  0  0  0  0
   -1.3957   -1.1388   -0.2557 C   0  0  0  0  0  0  0  0  0  0  0  0
    1.5996    0.6792    0.0320 C   0  0  0  0  0  0  0  0  0  0  0  0
   -3.7379   -0.6551    0.4878 C   0  0  0  0  0  0  0  0  0  0  0  0
    2.0375   -0.7285    0.0719 C   0  0  0  0  0  0  0  0  0  0  0  0
    2.5274    1.8266    0.1293 C   0  0  0  0  0  0  0  0  0  0  0  0
   -2.8267   -0.0111   -1.3381 H   0  0  0  0  0  0  0  0  0  0  0  0
   -2.0297    1.1918    1.3672 H   0  0  0  0  0  0  0  0  0  0  0  0
   -2.8577    1.9933    0.0372 H   0  0  0  0  0  0  0  0  0  0  0  0
   -0.4245    2.6150    0.2319 H   0  0  0  0  0  0  0  0  0  0  0  0
   -0.8497    1.9427   -1.3465 H   0  0  0  0  0  0  0  0  0  0  0  0
   -1.6303   -2.1980   -0.3070 H   0  0  0  0  0  0  0  0  0  0  0  0
   -4.5643    0.0623    0.4427 H   0  0  0  0  0  0  0  0  0  0  0  0
   -4.0962   -1.6019    0.0687 H   0  0  0  0  0  0  0  0  0  0  0  0
   -3.4949   -0.8261    1.5427 H   0  0  0  0  0  0  0  0  0  0  0  0
    3.2897    1.7702   -0.6542 H   0  0  0  0  0  0  0  0  0  0  0  0
    3.0314    1.8284    1.1009 H   0  0  0  0  0  0  0  0  0  0  0  0
    2.0060    2.7821    0.0189 H   0  0  0  0  0  0  0  0  0  0  0  0
  1  7  1  0  0  0  0
  1 11  1  0  0  0  0
  2 11  2  0  0  0  0
  3  4  1  0  0  0  0
  3  8  1  0  0  0  0
  3 10  1  0  0  0  0
  3 13  1  0  0  0  0
  4  5  1  0  0  0  0
  4 14  1  0  0  0  0
  4 15  1  0  0  0  0
  5  6  1  0  0  0  0
  5 16  1  0  0  0  0
  5 17  1  0  0  0  0
  6  7  1  0  0  0  0
  6  9  2  0  0  0  0
  7  8  2  0  0  0  0
  8 18  1  0  0  0  0
  9 11  1  0  0  0  0
  9 12  1  0  0  0  0
 10 19  1  0  0  0  0
 10 20  1  0  0  0  0
 10 21  1  0  0  0  0
 12 22  1  0  0  0  0
 12 23  1  0  0  0  0
 12 24  1  0  0  0  0
M  END
> <PUBCHEM_COMPOUND_CID>
3018936

> <PUBCHEM_CONFORMER_RMSD>
0.4

> <PUBCHEM_CONFORMER_DIVERSEORDER>
1
2

> <PUBCHEM_MMFF94_PARTIAL_CHARGES>
11
1 -0.23
11 0.71
12 0.14
18 0.15
2 -0.57
3 0.14
5 0.14
6 -0.14
7 0.08
8 -0.29
9 -0.12

> <PUBCHEM_EFFECTIVE_ROTOR_COUNT>
0.8

> <PUBCHEM_PHARMACOPHORE_FEATURES>
3
1 2 acceptor
5 1 6 7 9 11 rings
6 3 4 5 6 7 8 rings

> <PUBCHEM_HEAVY_ATOM_COUNT>
12

> <PUBCHEM_ATOM_DEF_STEREO_COUNT>
0

> <PUBCHEM_ATOM_UDEF_STEREO_COUNT>
1

> <PUBCHEM_BOND_DEF_STEREO_COUNT>
0

> <PUBCHEM_BOND_UDEF_STEREO_COUNT>
0

> <PUBCHEM_ISOTOPIC_ATOM_COUNT>
0

> <PUBCHEM_COMPONENT_COUNT>
1

> <PUBCHEM_CACTVS_TAUTO_COUNT>
1

> <PUBCHEM_CONFORMER_ID>
002E10B800000001

> <PUBCHEM_MMFF94_ENERGY>
11.9162

> <PUBCHEM_FEATURE_SELFOVERLAP>
15.326

> <PUBCHEM_SHAPE_FINGERPRINT>
10219947 1 18410858802055868719
11471102 20 18410288138420311757
11471102 22 18335717047652746123
12032990 46 18410017610872438607
12423570 1 15610706876863135797
12932764 1 17632572794616458761
14325111 11 18411136948216855009
15219456 202 18335413573816751653
15775835 57 18129667529067221153
161256 15 18410013230142778004
16945 1 18339921511144605406
17844478 74 18113622291817181717
19973954 147 18339642248134269221
20645477 70 18411412913135803079
20871998 22 18270126682125240070
21501502 16 18411141311719082920
21501925 9 18337379491932683250
23463225 33 18409448085244621540
23552423 10 18334293171304238254
2748010 2 18410004412437931749
5084963 1 18272084963715271321
528886 8 18267580389146096865
63268167 104 18340486763459070713
7364860 26 18272089422529699364
8809292 202 18187090571979548635

> <PUBCHEM_SHAPE_MULTIPOLES>
235.22
4.83
1.82
0.66
1.31
0.36
0
-0.51
-0.72
-0.66
0.01
0.13
0.02
0

> <PUBCHEM_SHAPE_SELFOVERLAP>
502.298

> <PUBCHEM_SHAPE_VOLUME>
133.3

> <PUBCHEM_COORDINATE_TYPE>
2
5
10

$$$$
