3020011
  -OEChem-11232109043D

 40 41  0     1  0  0  0  0  0999 V2000
   -0.3465   -0.1429   -1.3947 O   0  0  0  0  0  0  0  0  0  0  0  0
   -2.0292   -1.9958    0.8886 O   0  0  0  0  0  0  0  0  0  0  0  0
    0.3131    1.1058    0.5389 C   0  0  1  0  0  0  0  0  0  0  0  0
    0.5567    0.3364    1.8443 C   0  0  0  0  0  0  0  0  0  0  0  0
    2.5637    0.0417    0.5437 C   0  0  2  0  0  0  0  0  0  0  0  0
    1.6124   -0.7036    1.4835 C   0  0  0  0  0  0  0  0  0  0  0  0
    1.6587    1.0360   -0.1576 C   0  0  0  0  0  0  0  0  0  0  0  0
   -0.6800    0.3770   -0.3310 C   0  0  0  0  0  0  0  0  0  0  0  0
   -2.0855    0.3152    0.1629 C   0  0  1  0  0  0  0  0  0  0  0  0
   -0.2046    2.5163    0.8186 C   0  0  0  0  0  0  0  0  0  0  0  0
   -3.0671    0.9028   -0.8496 C   0  0  0  0  0  0  0  0  0  0  0  0
   -4.3890    0.2116   -0.5423 C   0  0  0  0  0  0  0  0  0  0  0  0
   -2.6323   -1.0822    0.3396 C   0  0  0  0  0  0  0  0  0  0  0  0
    3.2895   -0.8905   -0.3699 C   0  0  0  0  0  0  0  0  0  0  0  0
   -4.0078   -1.2344   -0.2575 C   0  0  0  0  0  0  0  0  0  0  0  0
    2.0213    1.7770   -1.2159 C   0  0  0  0  0  0  0  0  0  0  0  0
    4.7867   -0.8717   -0.2809 C   0  0  0  0  0  0  0  0  0  0  0  0
    2.6398   -1.6986   -1.2208 C   0  0  0  0  0  0  0  0  0  0  0  0
   -0.3361   -0.1416    2.2582 H   0  0  0  0  0  0  0  0  0  0  0  0
    0.9590    1.0037    2.6184 H   0  0  0  0  0  0  0  0  0  0  0  0
    3.2718    0.6146    1.1582 H   0  0  0  0  0  0  0  0  0  0  0  0
    2.1317   -1.0696    2.3762 H   0  0  0  0  0  0  0  0  0  0  0  0
    1.1259   -1.5684    1.0165 H   0  0  0  0  0  0  0  0  0  0  0  0
   -2.2151    0.8100    1.1292 H   0  0  0  0  0  0  0  0  0  0  0  0
    0.5947    3.1549    1.2137 H   0  0  0  0  0  0  0  0  0  0  0  0
   -0.5895    2.9961   -0.0888 H   0  0  0  0  0  0  0  0  0  0  0  0
   -1.0084    2.5270    1.5623 H   0  0  0  0  0  0  0  0  0  0  0  0
   -2.7661    0.6877   -1.8825 H   0  0  0  0  0  0  0  0  0  0  0  0
   -3.1474    1.9905   -0.7524 H   0  0  0  0  0  0  0  0  0  0  0  0
   -5.1036    0.2949   -1.3663 H   0  0  0  0  0  0  0  0  0  0  0  0
   -4.8464    0.6615    0.3475 H   0  0  0  0  0  0  0  0  0  0  0  0
   -3.9315   -1.8161   -1.1805 H   0  0  0  0  0  0  0  0  0  0  0  0
   -4.6969   -1.7068    0.4456 H   0  0  0  0  0  0  0  0  0  0  0  0
    1.3353    2.4837   -1.6700 H   0  0  0  0  0  0  0  0  0  0  0  0
    3.0119    1.6974   -1.6504 H   0  0  0  0  0  0  0  0  0  0  0  0
    5.1697    0.1265   -0.5167 H   0  0  0  0  0  0  0  0  0  0  0  0
    5.1105   -1.1400    0.7300 H   0  0  0  0  0  0  0  0  0  0  0  0
    5.2501   -1.5787   -0.9772 H   0  0  0  0  0  0  0  0  0  0  0  0
    3.1866   -2.3682   -1.8774 H   0  0  0  0  0  0  0  0  0  0  0  0
    1.5608   -1.7348   -1.2891 H   0  0  0  0  0  0  0  0  0  0  0  0
  1  8  2  0  0  0  0
  2 13  2  0  0  0  0
  3  4  1  0  0  0  0
  3  7  1  0  0  0  0
  3  8  1  0  0  0  0
  3 10  1  0  0  0  0
  4  6  1  0  0  0  0
  4 19  1  0  0  0  0
  4 20  1  0  0  0  0
  5  6  1  0  0  0  0
  5  7  1  0  0  0  0
  5 14  1  0  0  0  0
  5 21  1  0  0  0  0
  6 22  1  0  0  0  0
  6 23  1  0  0  0  0
  7 16  2  0  0  0  0
  8  9  1  0  0  0  0
  9 11  1  0  0  0  0
  9 13  1  0  0  0  0
  9 24  1  0  0  0  0
 10 25  1  0  0  0  0
 10 26  1  0  0  0  0
 10 27  1  0  0  0  0
 11 12  1  0  0  0  0
 11 28  1  0  0  0  0
 11 29  1  0  0  0  0
 12 15  1  0  0  0  0
 12 30  1  0  0  0  0
 12 31  1  0  0  0  0
 13 15  1  0  0  0  0
 14 17  1  0  0  0  0
 14 18  2  0  0  0  0
 15 32  1  0  0  0  0
 15 33  1  0  0  0  0
 16 34  1  0  0  0  0
 16 35  1  0  0  0  0
 17 36  1  0  0  0  0
 17 37  1  0  0  0  0
 17 38  1  0  0  0  0
 18 39  1  0  0  0  0
 18 40  1  0  0  0  0
M  END
> <PUBCHEM_COMPOUND_CID>
3020011

> <PUBCHEM_CONFORMER_RMSD>
0.6

> <PUBCHEM_CONFORMER_DIVERSEORDER>
5
50
110
40
96
117
106
113
97
25
118
28
114
53
54
88
80
93
105
52
26
31
82
63
55
85
74
19
116
100
92
102
51
35
39
43
111
17
73
13
99
65
2
32
109
84
6
103
70
62
83
60
115
76
34
16
9
87
38
30
95
47
10
86
20
48
11
46
71
45
37
18
14
36
68
49
23
33
12
90
42
94
1
22
108
119
104
41
101
91
98
66
44
21
77
112
27
72
89
58
107
78
69
15
7
56
79
29
67
64
24
57
81
61
75
4
59
8
3

> <PUBCHEM_MMFF94_PARTIAL_CHARGES>
17
1 -0.57
13 0.45
14 -0.28
15 0.06
16 -0.3
17 0.14
18 -0.3
2 -0.57
3 0.2
34 0.15
35 0.15
39 0.15
40 0.15
5 0.28
7 -0.28
8 0.45
9 0.12

> <PUBCHEM_EFFECTIVE_ROTOR_COUNT>
4.6

> <PUBCHEM_PHARMACOPHORE_FEATURES>
5
1 1 acceptor
1 2 acceptor
1 9 anion
5 3 4 5 6 7 rings
5 9 11 12 13 15 rings

> <PUBCHEM_HEAVY_ATOM_COUNT>
18

> <PUBCHEM_ATOM_DEF_STEREO_COUNT>
0

> <PUBCHEM_ATOM_UDEF_STEREO_COUNT>
3

> <PUBCHEM_BOND_DEF_STEREO_COUNT>
0

> <PUBCHEM_BOND_UDEF_STEREO_COUNT>
0

> <PUBCHEM_ISOTOPIC_ATOM_COUNT>
0

> <PUBCHEM_COMPONENT_COUNT>
1

> <PUBCHEM_CACTVS_TAUTO_COUNT>
5

> <PUBCHEM_CONFORMER_ID>
002E14EB00000005

> <PUBCHEM_MMFF94_ENERGY>
35.5317

> <PUBCHEM_FEATURE_SELFOVERLAP>
25.371

> <PUBCHEM_SHAPE_FINGERPRINT>
10465860 71 18260551099767136708
10618630 7 18130507453024399846
116883 192 18269841921371882444
12670546 177 18040725779065650622
12788726 201 18196934379218298600
12892183 10 12607404369165615438
13134695 92 17346307228674802209
13544653 18 17560523898224935086
13571099 22 18130783473419070209
13705890 14 18410294730999971096
14115302 16 18333453153005413621
14350558 41 18272375269466456902
15375358 24 18341604919555715842
15775835 57 17022902324425142114
16752209 62 18190728753129708609
16945 1 17821444647040826849
17804303 29 18334573564550661403
18186145 218 17603300479386165989
19862831 5 18040718047655103269
200 152 18408606946444505906
20645476 183 17167861963459728163
20645477 70 18338510958370329607
20671657 53 18260831466769074100
20871999 31 18335419015424147789
21069387 34 17203027673983730781
231179 274 11314027972113763766
23175994 123 18202565059847269125
23227448 37 10666388161428046838
23402539 116 18260544486156012158
23557571 272 18338789036091673784
23559900 14 18411130368205761728
25 1 13118001089061839894
2748010 2 16662920160286438656
3060560 45 17313377950517913930
3286 77 17131542925503880217
465052 167 18129666447379359439
474 4 15937261160261144013
7364860 26 18197494228110529144
74978 22 18113896091634541325
81228 2 18200030612399349032
83771 10 18060699468456565402
9709674 26 18190179186183605411

> <PUBCHEM_SHAPE_MULTIPOLES>
358.69
7.3
1.95
1.37
1.43
0.44
-0.24
-3.29
1.83
-0.14
-0.01
-0.43
0.04
0.38

> <PUBCHEM_SHAPE_SELFOVERLAP>
753.064

> <PUBCHEM_SHAPE_VOLUME>
206.2

> <PUBCHEM_COORDINATE_TYPE>
2
5
10

$$$$
