3020082
  -OEChem-11232109093D

 36 36  0     0  0  0  0  0  0999 V2000
    2.8721    3.1246    0.0534 O   0  0  0  0  0  0  0  0  0  0  0  0
    2.1726   -0.3200   -0.1861 C   0  0  0  0  0  0  0  0  0  0  0  0
    2.8020   -1.5354    0.5035 C   0  0  0  0  0  0  0  0  0  0  0  0
    1.5047    0.6925    0.7564 C   0  0  0  0  0  0  0  0  0  0  0  0
    3.4513   -2.5122   -0.4781 C   0  0  0  0  0  0  0  0  0  0  0  0
    0.8452    1.8506    0.0497 C   0  0  0  0  0  0  0  0  0  0  0  0
    4.0679   -3.6988    0.2462 C   0  0  0  0  0  0  0  0  0  0  0  0
   -0.4269    1.9380   -0.3788 C   0  0  0  0  0  0  0  0  0  0  0  0
   -1.4534    0.9008   -0.2280 C   0  0  0  0  0  0  0  0  0  0  0  0
    1.6899    3.0407   -0.2581 C   0  0  0  0  0  0  0  0  0  0  0  0
   -1.6238   -0.0448   -1.2304 C   0  0  0  0  0  0  0  0  0  0  0  0
   -2.2421    0.8785    0.9149 C   0  0  0  0  0  0  0  0  0  0  0  0
   -3.3979   -1.0617    0.0565 C   0  0  0  0  0  0  0  0  0  0  0  0
   -2.6005   -1.0304   -1.0876 C   0  0  0  0  0  0  0  0  0  0  0  0
   -3.2187   -0.1072    1.0578 C   0  0  0  0  0  0  0  0  0  0  0  0
   -4.4425   -2.1152    0.2086 C   0  0  0  0  0  0  0  0  0  0  0  0
    2.9484    0.1950   -0.7675 H   0  0  0  0  0  0  0  0  0  0  0  0
    1.4322   -0.6776   -0.9125 H   0  0  0  0  0  0  0  0  0  0  0  0
    3.5536   -1.1874    1.2228 H   0  0  0  0  0  0  0  0  0  0  0  0
    2.0290   -2.0585    1.0799 H   0  0  0  0  0  0  0  0  0  0  0  0
    0.7609    0.1647    1.3663 H   0  0  0  0  0  0  0  0  0  0  0  0
    2.2445    1.0675    1.4745 H   0  0  0  0  0  0  0  0  0  0  0  0
    2.7023   -2.8736   -1.1921 H   0  0  0  0  0  0  0  0  0  0  0  0
    4.2284   -1.9973   -1.0547 H   0  0  0  0  0  0  0  0  0  0  0  0
    3.3093   -4.2527    0.8083 H   0  0  0  0  0  0  0  0  0  0  0  0
    4.5263   -4.3849   -0.4728 H   0  0  0  0  0  0  0  0  0  0  0  0
    4.8437   -3.3716    0.9457 H   0  0  0  0  0  0  0  0  0  0  0  0
   -0.7846    2.8280   -0.8929 H   0  0  0  0  0  0  0  0  0  0  0  0
    1.1884    3.8659   -0.7920 H   0  0  0  0  0  0  0  0  0  0  0  0
   -1.0101   -0.0313   -2.1274 H   0  0  0  0  0  0  0  0  0  0  0  0
   -2.1133    1.6169    1.7022 H   0  0  0  0  0  0  0  0  0  0  0  0
   -2.7318   -1.7673   -1.8755 H   0  0  0  0  0  0  0  0  0  0  0  0
   -3.8349   -0.1198    1.9529 H   0  0  0  0  0  0  0  0  0  0  0  0
   -4.1473   -3.0403   -0.2982 H   0  0  0  0  0  0  0  0  0  0  0  0
   -4.6014   -2.3648    1.2632 H   0  0  0  0  0  0  0  0  0  0  0  0
   -5.3898   -1.7691   -0.2165 H   0  0  0  0  0  0  0  0  0  0  0  0
  1 10  2  0  0  0  0
  2  3  1  0  0  0  0
  2  4  1  0  0  0  0
  2 17  1  0  0  0  0
  2 18  1  0  0  0  0
  3  5  1  0  0  0  0
  3 19  1  0  0  0  0
  3 20  1  0  0  0  0
  4  6  1  0  0  0  0
  4 21  1  0  0  0  0
  4 22  1  0  0  0  0
  5  7  1  0  0  0  0
  5 23  1  0  0  0  0
  5 24  1  0  0  0  0
  6  8  2  3  0  0  0
  6 10  1  0  0  0  0
  7 25  1  0  0  0  0
  7 26  1  0  0  0  0
  7 27  1  0  0  0  0
  8  9  1  0  0  0  0
  8 28  1  0  0  0  0
  9 11  2  0  0  0  0
  9 12  1  0  0  0  0
 10 29  1  0  0  0  0
 11 14  1  0  0  0  0
 11 30  1  0  0  0  0
 12 15  2  0  0  0  0
 12 31  1  0  0  0  0
 13 14  2  0  0  0  0
 13 15  1  0  0  0  0
 13 16  1  0  0  0  0
 14 32  1  0  0  0  0
 15 33  1  0  0  0  0
 16 34  1  0  0  0  0
 16 35  1  0  0  0  0
 16 36  1  0  0  0  0
M  END
> <PUBCHEM_COMPOUND_CID>
3020082

> <PUBCHEM_CONFORMER_RMSD>
0.8

> <PUBCHEM_CONFORMER_DIVERSEORDER>
1
9
27
24
12
25
14
23
26
19
13
21
2
7
18
3
6
17
20
10
22
4
11
15
8
5
16

> <PUBCHEM_MMFF94_PARTIAL_CHARGES>
18
1 -0.57
10 0.5
11 -0.15
12 -0.15
13 -0.14
14 -0.15
15 -0.15
16 0.14
28 0.15
29 0.06
30 0.15
31 0.15
32 0.15
33 0.15
4 0.14
6 -0.12
8 -0.18
9 0.03

> <PUBCHEM_EFFECTIVE_ROTOR_COUNT>
6

> <PUBCHEM_PHARMACOPHORE_FEATURES>
4
1 1 acceptor
1 7 hydrophobe
5 2 3 4 5 6 hydrophobe
6 9 11 12 13 14 15 rings

> <PUBCHEM_HEAVY_ATOM_COUNT>
16

> <PUBCHEM_ATOM_DEF_STEREO_COUNT>
0

> <PUBCHEM_ATOM_UDEF_STEREO_COUNT>
0

> <PUBCHEM_BOND_DEF_STEREO_COUNT>
0

> <PUBCHEM_BOND_UDEF_STEREO_COUNT>
1

> <PUBCHEM_ISOTOPIC_ATOM_COUNT>
0

> <PUBCHEM_COMPONENT_COUNT>
1

> <PUBCHEM_CACTVS_TAUTO_COUNT>
1

> <PUBCHEM_CONFORMER_ID>
002E153200000001

> <PUBCHEM_MMFF94_ENERGY>
26.7695

> <PUBCHEM_FEATURE_SELFOVERLAP>
20.297

> <PUBCHEM_SHAPE_FINGERPRINT>
12107183 9 18197511640704013113
12363563 72 18336826373307569578
12553582 1 18266741281739333862
13533116 47 18270400628815591155
14251731 5 18338800005158676746
14863182 85 17974014147626610260
15279307 12 17912365625852674085
17859628 70 18265901430749055123
20291156 8 18337956658465523246
20645477 70 18191008183680660239
20871998 22 18410570665389891624
21665056 4 16753530488514156742
22445834 79 18128259080811199841
2255824 54 18265900348681001668
23728640 28 17110710177702066570
27216 239 11022950977384881823
3421961 26 18410855485903467834
458136 41 18120665879063473608
7097593 13 18271813418919408817
7364860 26 18339643455320792248
81228 2 17763443038239181096

> <PUBCHEM_SHAPE_MULTIPOLES>
323.4
7.69
4.07
1
0.27
0.26
-0.05
-8.46
0.78
5.29
-0.08
-0.54
-0.09
-0.17

> <PUBCHEM_SHAPE_SELFOVERLAP>
647.236

> <PUBCHEM_SHAPE_VOLUME>
191.8

> <PUBCHEM_COORDINATE_TYPE>
2
5
10

$$$$
