3020401
  -OEChem-11232109093D

 32 31  0     1  0  0  0  0  0999 V2000
    2.4400   -1.3103    1.2279 O   0  0  0  0  0  0  0  0  0  0  0  0
    0.8761   -0.0063   -0.1452 C   0  0  2  0  0  0  0  0  0  0  0  0
    2.1118   -0.9695   -0.1216 C   0  0  1  0  0  0  0  0  0  0  0  0
   -0.3251   -0.6023    0.6632 C   0  0  0  0  0  0  0  0  0  0  0  0
    0.4350    0.2088   -1.6134 C   0  0  0  0  0  0  0  0  0  0  0  0
    1.2371    1.3074    0.5544 C   0  0  0  0  0  0  0  0  0  0  0  0
    3.3732   -0.4257   -0.7942 C   0  0  0  0  0  0  0  0  0  0  0  0
   -1.6014    0.1989    0.6178 C   0  0  0  0  0  0  0  0  0  0  0  0
   -2.7851   -0.1535    0.0808 C   0  0  0  0  0  0  0  0  0  0  0  0
    1.2093    2.5472    0.0491 C   0  0  0  0  0  0  0  0  0  0  0  0
   -4.0229    0.6977    0.0702 C   0  0  0  0  0  0  0  0  0  0  0  0
   -2.9481   -1.4923   -0.5890 C   0  0  0  0  0  0  0  0  0  0  0  0
    1.8361   -1.9095   -0.6146 H   0  0  0  0  0  0  0  0  0  0  0  0
   -0.0482   -0.6904    1.7237 H   0  0  0  0  0  0  0  0  0  0  0  0
   -0.4857   -1.6356    0.3391 H   0  0  0  0  0  0  0  0  0  0  0  0
    1.2273    0.6581   -2.2211 H   0  0  0  0  0  0  0  0  0  0  0  0
   -0.4361    0.8672   -1.7000 H   0  0  0  0  0  0  0  0  0  0  0  0
    0.1685   -0.7473   -2.0789 H   0  0  0  0  0  0  0  0  0  0  0  0
    1.5396    1.2239    1.5978 H   0  0  0  0  0  0  0  0  0  0  0  0
    3.7264    0.4940   -0.3169 H   0  0  0  0  0  0  0  0  0  0  0  0
    3.2237   -0.2369   -1.8601 H   0  0  0  0  0  0  0  0  0  0  0  0
    4.1887   -1.1513   -0.6940 H   0  0  0  0  0  0  0  0  0  0  0  0
   -1.5492    1.1756    1.0967 H   0  0  0  0  0  0  0  0  0  0  0  0
    2.8890   -0.5512    1.6360 H   0  0  0  0  0  0  0  0  0  0  0  0
    1.4868    3.3924    0.6706 H   0  0  0  0  0  0  0  0  0  0  0  0
    0.9184    2.7571   -0.9727 H   0  0  0  0  0  0  0  0  0  0  0  0
   -3.8610    1.6490    0.5876 H   0  0  0  0  0  0  0  0  0  0  0  0
   -4.3245    0.9236   -0.9576 H   0  0  0  0  0  0  0  0  0  0  0  0
   -4.8460    0.1796    0.5727 H   0  0  0  0  0  0  0  0  0  0  0  0
   -3.6395   -1.4086   -1.4356 H   0  0  0  0  0  0  0  0  0  0  0  0
   -3.3669   -2.2180    0.1153 H   0  0  0  0  0  0  0  0  0  0  0  0
   -2.0224   -1.8941   -1.0072 H   0  0  0  0  0  0  0  0  0  0  0  0
  1  3  1  0  0  0  0
  1 24  1  0  0  0  0
  2  3  1  0  0  0  0
  2  4  1  0  0  0  0
  2  5  1  0  0  0  0
  2  6  1  0  0  0  0
  3  7  1  0  0  0  0
  3 13  1  0  0  0  0
  4  8  1  0  0  0  0
  4 14  1  0  0  0  0
  4 15  1  0  0  0  0
  5 16  1  0  0  0  0
  5 17  1  0  0  0  0
  5 18  1  0  0  0  0
  6 10  2  0  0  0  0
  6 19  1  0  0  0  0
  7 20  1  0  0  0  0
  7 21  1  0  0  0  0
  7 22  1  0  0  0  0
  8  9  2  0  0  0  0
  8 23  1  0  0  0  0
  9 11  1  0  0  0  0
  9 12  1  0  0  0  0
 10 25  1  0  0  0  0
 10 26  1  0  0  0  0
 11 27  1  0  0  0  0
 11 28  1  0  0  0  0
 11 29  1  0  0  0  0
 12 30  1  0  0  0  0
 12 31  1  0  0  0  0
 12 32  1  0  0  0  0
M  END
> <PUBCHEM_COMPOUND_CID>
3020401

> <PUBCHEM_CONFORMER_RMSD>
0.6

> <PUBCHEM_CONFORMER_DIVERSEORDER>
10
83
22
5
60
79
70
86
47
85
12
41
37
35
75
26
88
27
72
36
43
76
17
29
58
82
46
8
80
50
15
68
77
62
24
42
52
7
66
44
73
3
45
51
87
11
2
38
25
6
67
53
33
64
59
56
84
13
69
21
31
19
14
1
81
61
63
74
65
9
40
30
32
48
16
28
54
71
55
18
20
34
39
4
23
57
78
49

> <PUBCHEM_MMFF94_PARTIAL_CHARGES>
15
1 -0.68
10 -0.3
11 0.14
12 0.14
19 0.15
2 0.14
23 0.15
24 0.4
25 0.15
26 0.15
3 0.28
4 0.14
6 -0.29
8 -0.29
9 -0.28

> <PUBCHEM_EFFECTIVE_ROTOR_COUNT>
4

> <PUBCHEM_PHARMACOPHORE_FEATURES>
6
1 1 acceptor
1 1 donor
1 10 hydrophobe
1 5 hydrophobe
3 9 11 12 hydrophobe
4 2 4 6 8 hydrophobe

> <PUBCHEM_HEAVY_ATOM_COUNT>
12

> <PUBCHEM_ATOM_DEF_STEREO_COUNT>
0

> <PUBCHEM_ATOM_UDEF_STEREO_COUNT>
2

> <PUBCHEM_BOND_DEF_STEREO_COUNT>
0

> <PUBCHEM_BOND_UDEF_STEREO_COUNT>
0

> <PUBCHEM_ISOTOPIC_ATOM_COUNT>
0

> <PUBCHEM_COMPONENT_COUNT>
1

> <PUBCHEM_CACTVS_TAUTO_COUNT>
1

> <PUBCHEM_CONFORMER_ID>
002E16710000000A

> <PUBCHEM_MMFF94_ENERGY>
26.0567

> <PUBCHEM_FEATURE_SELFOVERLAP>
30.597

> <PUBCHEM_SHAPE_FINGERPRINT>
10130415 120 18114461150058228714
10219947 1 17346884424944566462
10465860 71 18129964315802627060
12932764 1 18259981587425537903
14344429 50 18410020935203272157
14993402 34 17988653990595187356
15775835 57 18333737909685272087
16945 1 18271241625527896691
17041 50 18342461421701892645
18175812 5 16845287215878963182
18186145 218 18409443709279543419
18511873 20 18341612577640452331
19973954 147 18340488975594198361
20201158 50 17203615852533064935
20233049 118 18261679164279786229
20279233 1 14549023178406034253
20645477 70 18270397317100341943
20653091 64 18342180007018059616
21501502 16 18271242854299947949
21524375 3 17622723536948529792
23402539 116 17845927413034023357
23552423 10 18339921640389282675
23598291 2 18272375308305837533
276578 36 11241973680636751896
3248919 1 17203621393161974979
5084963 1 17418102021973915834
57812782 119 16343702101620652639
7364860 26 18130226093943585280
74978 22 18411983585297640195
81228 2 18051144587867982560
93112 12 18412824707461101655
9939556 21 18343301496346773917

> <PUBCHEM_SHAPE_MULTIPOLES>
241.09
5.67
1.78
1.1
3.8
1.01
0.18
-1.03
0.36
-0.65
-0.09
-0.42
-0.17
-0.3

> <PUBCHEM_SHAPE_SELFOVERLAP>
452.185

> <PUBCHEM_SHAPE_VOLUME>
151.8

> <PUBCHEM_COORDINATE_TYPE>
2
5
10

$$$$
