3021997
  -OEChem-11232109023D

 31 31  0     1  0  0  0  0  0999 V2000
    2.9779    1.9494   -0.9836 O   0  0  0  0  0  0  0  0  0  0  0  0
    1.4061   -1.2005    0.4475 C   0  0  0  0  0  0  0  0  0  0  0  0
    0.1798   -1.4158   -0.4690 C   0  0  2  0  0  0  0  0  0  0  0  0
    2.0246    0.2145    0.4124 C   0  0  2  0  0  0  0  0  0  0  0  0
   -0.9629   -0.4596   -0.1747 C   0  0  0  0  0  0  0  0  0  0  0  0
    2.4947    0.6111   -0.9929 C   0  0  0  0  0  0  0  0  0  0  0  0
   -0.3027   -2.8696   -0.3706 C   0  0  0  0  0  0  0  0  0  0  0  0
    3.1908    0.2830    1.4086 C   0  0  0  0  0  0  0  0  0  0  0  0
   -1.7553   -0.0208   -1.2178 C   0  0  0  0  0  0  0  0  0  0  0  0
   -1.1789   -0.0539    1.1282 C   0  0  0  0  0  0  0  0  0  0  0  0
   -2.8046    0.8577   -0.9474 C   0  0  0  0  0  0  0  0  0  0  0  0
   -2.2283    0.8244    1.3986 C   0  0  0  0  0  0  0  0  0  0  0  0
   -3.0412    1.2801    0.3607 C   0  0  0  0  0  0  0  0  0  0  0  0
    2.1822   -1.9149    0.1364 H   0  0  0  0  0  0  0  0  0  0  0  0
    1.1725   -1.4779    1.4830 H   0  0  0  0  0  0  0  0  0  0  0  0
    0.5049   -1.2625   -1.5057 H   0  0  0  0  0  0  0  0  0  0  0  0
    1.2937    0.9568    0.7512 H   0  0  0  0  0  0  0  0  0  0  0  0
    1.6841    0.5692   -1.7248 H   0  0  0  0  0  0  0  0  0  0  0  0
    3.3023   -0.0412   -1.3402 H   0  0  0  0  0  0  0  0  0  0  0  0
   -1.1376   -3.0554   -1.0555 H   0  0  0  0  0  0  0  0  0  0  0  0
   -0.6446   -3.1106    0.6423 H   0  0  0  0  0  0  0  0  0  0  0  0
    0.5030   -3.5646   -0.6302 H   0  0  0  0  0  0  0  0  0  0  0  0
    2.8554    0.0166    2.4167 H   0  0  0  0  0  0  0  0  0  0  0  0
    3.9947   -0.4051    1.1257 H   0  0  0  0  0  0  0  0  0  0  0  0
    3.6108    1.2928    1.4592 H   0  0  0  0  0  0  0  0  0  0  0  0
   -1.5798   -0.3455   -2.2390 H   0  0  0  0  0  0  0  0  0  0  0  0
   -0.5879   -0.4051    1.9661 H   0  0  0  0  0  0  0  0  0  0  0  0
   -3.4380    1.2120   -1.7554 H   0  0  0  0  0  0  0  0  0  0  0  0
   -2.4167    1.1489    2.4179 H   0  0  0  0  0  0  0  0  0  0  0  0
    2.2461    2.5230   -0.6992 H   0  0  0  0  0  0  0  0  0  0  0  0
   -3.8592    1.9626    0.5714 H   0  0  0  0  0  0  0  0  0  0  0  0
  1  6  1  0  0  0  0
  1 30  1  0  0  0  0
  2  3  1  0  0  0  0
  2  4  1  0  0  0  0
  2 14  1  0  0  0  0
  2 15  1  0  0  0  0
  3  5  1  0  0  0  0
  3  7  1  0  0  0  0
  3 16  1  0  0  0  0
  4  6  1  0  0  0  0
  4  8  1  0  0  0  0
  4 17  1  0  0  0  0
  5  9  2  0  0  0  0
  5 10  1  0  0  0  0
  6 18  1  0  0  0  0
  6 19  1  0  0  0  0
  7 20  1  0  0  0  0
  7 21  1  0  0  0  0
  7 22  1  0  0  0  0
  8 23  1  0  0  0  0
  8 24  1  0  0  0  0
  8 25  1  0  0  0  0
  9 11  1  0  0  0  0
  9 26  1  0  0  0  0
 10 12  2  0  0  0  0
 10 27  1  0  0  0  0
 11 13  2  0  0  0  0
 11 28  1  0  0  0  0
 12 13  1  0  0  0  0
 12 29  1  0  0  0  0
 13 31  1  0  0  0  0
M  END
> <PUBCHEM_COMPOUND_CID>
3021997

> <PUBCHEM_CONFORMER_RMSD>
0.6

> <PUBCHEM_CONFORMER_DIVERSEORDER>
1
6
13
19
21
12
10
22
15
20
4
18
11
8
16
14
2
17
3
5
9
7

> <PUBCHEM_MMFF94_PARTIAL_CHARGES>
15
1 -0.68
10 -0.15
11 -0.15
12 -0.15
13 -0.15
26 0.15
27 0.15
28 0.15
29 0.15
3 0.14
30 0.4
31 0.15
5 -0.14
6 0.28
9 -0.15

> <PUBCHEM_EFFECTIVE_ROTOR_COUNT>
4

> <PUBCHEM_PHARMACOPHORE_FEATURES>
5
1 1 acceptor
1 1 donor
1 7 hydrophobe
1 8 hydrophobe
6 5 9 10 11 12 13 rings

> <PUBCHEM_HEAVY_ATOM_COUNT>
13

> <PUBCHEM_ATOM_DEF_STEREO_COUNT>
0

> <PUBCHEM_ATOM_UDEF_STEREO_COUNT>
2

> <PUBCHEM_BOND_DEF_STEREO_COUNT>
0

> <PUBCHEM_BOND_UDEF_STEREO_COUNT>
0

> <PUBCHEM_ISOTOPIC_ATOM_COUNT>
0

> <PUBCHEM_COMPONENT_COUNT>
1

> <PUBCHEM_CACTVS_TAUTO_COUNT>
1

> <PUBCHEM_CONFORMER_ID>
002E1CAD00000001

> <PUBCHEM_MMFF94_ENERGY>
31.3346

> <PUBCHEM_FEATURE_SELFOVERLAP>
25.371

> <PUBCHEM_SHAPE_FINGERPRINT>
100427 49 16972509825117801126
12326174 3 17974284318175973651
12696612 119 16588317110851605756
12897270 3 15123496038854946760
13299463 15 13829841469841007362
13764800 53 18271253831761785155
15775835 57 17988353780559908632
16945 1 17677322806023699471
17357990 137 18410578366445601448
17804303 29 14997123545362435040
17834069 17 18187657906814620715
18186145 218 18130505240878891540
19837323 101 17775005729727951994
20645464 45 17168145585756108041
20645476 183 18410294739547883150
20828058 43 17313115184476682572
21028194 46 18342735200060226970
21524375 3 18413103957180892998
22169311 14 16153703176636756928
22802520 49 16845308136843971198
230 275 18340206289183223232
23552423 10 17557695864171597655
23557571 272 16772375434545172222
305870 269 18198332970872508746
369184 2 16660362576007287033
430814 3 18338532901194714326
549884 4 17417817209960662248
74978 22 18340205297388643212
81228 2 17982170329029239907

> <PUBCHEM_SHAPE_MULTIPOLES>
261.66
5.05
2.03
1.4
1.1
1.44
-0.09
-3.29
-0.09
0.36
0.34
0.09
-0.43
-0.57

> <PUBCHEM_SHAPE_SELFOVERLAP>
523.046

> <PUBCHEM_SHAPE_VOLUME>
155.2

> <PUBCHEM_COORDINATE_TYPE>
2
5
10

$$$$
