3022846
  -OEChem-11232109413D

 51 52  0     1  0  0  0  0  0999 V2000
    2.6806    1.1817   -2.0437 O   0  0  0  0  0  0  0  0  0  0  0  0
    2.2113   -1.0687   -2.1641 O   0  0  0  0  0  0  0  0  0  0  0  0
    1.2177   -1.9020    0.2667 N   0  0  0  0  0  0  0  0  0  0  0  0
   -1.0861   -2.4236   -0.3065 C   0  0  1  0  0  0  0  0  0  0  0  0
   -2.1076   -2.7158    0.7917 C   0  0  0  0  0  0  0  0  0  0  0  0
   -2.9666   -1.4959    1.1428 C   0  0  0  0  0  0  0  0  0  0  0  0
   -1.7465   -1.8349   -1.5573 C   0  0  0  0  0  0  0  0  0  0  0  0
   -3.4148   -0.7018   -0.0568 C   0  0  0  0  0  0  0  0  0  0  0  0
   -2.8657   -0.8753   -1.2708 C   0  0  0  0  0  0  0  0  0  0  0  0
   -4.5059    0.2993    0.1839 C   0  0  0  0  0  0  0  0  0  0  0  0
   -0.0136   -1.5112    0.2171 C   0  0  0  0  0  0  0  0  0  0  0  0
   -4.0345    1.7217   -0.1030 C   0  0  0  0  0  0  0  0  0  0  0  0
   -2.9486    2.1296    0.8529 C   0  0  0  0  0  0  0  0  0  0  0  0
   -1.7112    2.5688    0.5550 C   0  0  0  0  0  0  0  0  0  0  0  0
    2.1359   -0.9666    0.7731 C   0  0  0  0  0  0  0  0  0  0  0  0
    2.7809   -0.0699   -0.0753 C   0  0  0  0  0  0  0  0  0  0  0  0
   -1.2774    2.7135   -0.8792 C   0  0  0  0  0  0  0  0  0  0  0  0
   -0.6687    2.9621    1.5630 C   0  0  0  0  0  0  0  0  0  0  0  0
    2.3943   -0.9487    2.1417 C   0  0  0  0  0  0  0  0  0  0  0  0
    3.6898    0.8499    0.4477 C   0  0  0  0  0  0  0  0  0  0  0  0
    3.3029   -0.0287    2.6647 C   0  0  0  0  0  0  0  0  0  0  0  0
    3.9508    0.8705    1.8177 C   0  0  0  0  0  0  0  0  0  0  0  0
    2.5271   -0.0677   -1.5100 C   0  0  0  0  0  0  0  0  0  0  0  0
    2.4560    1.3136   -3.4513 C   0  0  0  0  0  0  0  0  0  0  0  0
   -0.5973   -3.3658   -0.5882 H   0  0  0  0  0  0  0  0  0  0  0  0
   -1.6083   -3.0775    1.6990 H   0  0  0  0  0  0  0  0  0  0  0  0
   -2.7665   -3.5260    0.4519 H   0  0  0  0  0  0  0  0  0  0  0  0
   -2.4093   -0.8343    1.8169 H   0  0  0  0  0  0  0  0  0  0  0  0
   -3.8416   -1.8510    1.7009 H   0  0  0  0  0  0  0  0  0  0  0  0
   -2.1565   -2.6499   -2.1665 H   0  0  0  0  0  0  0  0  0  0  0  0
   -0.9955   -1.3242   -2.1725 H   0  0  0  0  0  0  0  0  0  0  0  0
   -3.2334   -0.3022   -2.1179 H   0  0  0  0  0  0  0  0  0  0  0  0
   -4.8779    0.2284    1.2140 H   0  0  0  0  0  0  0  0  0  0  0  0
   -5.3623    0.0614   -0.4599 H   0  0  0  0  0  0  0  0  0  0  0  0
   -0.3177   -0.5008    0.5473 H   0  0  0  0  0  0  0  0  0  0  0  0
   -3.7768    1.8449   -1.1565 H   0  0  0  0  0  0  0  0  0  0  0  0
   -4.8826    2.3987    0.0639 H   0  0  0  0  0  0  0  0  0  0  0  0
   -3.2154    2.0628    1.9072 H   0  0  0  0  0  0  0  0  0  0  0  0
   -1.8359    2.1052   -1.5914 H   0  0  0  0  0  0  0  0  0  0  0  0
   -0.2324    2.3978   -0.9837 H   0  0  0  0  0  0  0  0  0  0  0  0
   -1.3426    3.7622   -1.1866 H   0  0  0  0  0  0  0  0  0  0  0  0
   -0.3660    4.0033    1.4125 H   0  0  0  0  0  0  0  0  0  0  0  0
   -1.0425    2.8663    2.5876 H   0  0  0  0  0  0  0  0  0  0  0  0
    0.2145    2.3219    1.4688 H   0  0  0  0  0  0  0  0  0  0  0  0
    1.8953   -1.6457    2.8099 H   0  0  0  0  0  0  0  0  0  0  0  0
    4.2219    1.5547   -0.1858 H   0  0  0  0  0  0  0  0  0  0  0  0
    3.5068   -0.0131    3.7314 H   0  0  0  0  0  0  0  0  0  0  0  0
    4.6607    1.5844    2.2250 H   0  0  0  0  0  0  0  0  0  0  0  0
    2.6184    2.3592   -3.7255 H   0  0  0  0  0  0  0  0  0  0  0  0
    3.1623    0.6892   -4.0063 H   0  0  0  0  0  0  0  0  0  0  0  0
    1.4247    1.0413   -3.6948 H   0  0  0  0  0  0  0  0  0  0  0  0
  1 23  1  0  0  0  0
  1 24  1  0  0  0  0
  2 23  2  0  0  0  0
  3 11  2  0  0  0  0
  3 15  1  0  0  0  0
  4  5  1  0  0  0  0
  4  7  1  0  0  0  0
  4 11  1  0  0  0  0
  4 25  1  0  0  0  0
  5  6  1  0  0  0  0
  5 26  1  0  0  0  0
  5 27  1  0  0  0  0
  6  8  1  0  0  0  0
  6 28  1  0  0  0  0
  6 29  1  0  0  0  0
  7  9  1  0  0  0  0
  7 30  1  0  0  0  0
  7 31  1  0  0  0  0
  8  9  2  0  0  0  0
  8 10  1  0  0  0  0
  9 32  1  0  0  0  0
 10 12  1  0  0  0  0
 10 33  1  0  0  0  0
 10 34  1  0  0  0  0
 11 35  1  0  0  0  0
 12 13  1  0  0  0  0
 12 36  1  0  0  0  0
 12 37  1  0  0  0  0
 13 14  2  0  0  0  0
 13 38  1  0  0  0  0
 14 17  1  0  0  0  0
 14 18  1  0  0  0  0
 15 16  1  0  0  0  0
 15 19  2  0  0  0  0
 16 20  2  0  0  0  0
 16 23  1  0  0  0  0
 17 39  1  0  0  0  0
 17 40  1  0  0  0  0
 17 41  1  0  0  0  0
 18 42  1  0  0  0  0
 18 43  1  0  0  0  0
 18 44  1  0  0  0  0
 19 21  1  0  0  0  0
 19 45  1  0  0  0  0
 20 22  1  0  0  0  0
 20 46  1  0  0  0  0
 21 22  2  0  0  0  0
 21 47  1  0  0  0  0
 22 48  1  0  0  0  0
 24 49  1  0  0  0  0
 24 50  1  0  0  0  0
 24 51  1  0  0  0  0
M  END
> <PUBCHEM_COMPOUND_CID>
3022846

> <PUBCHEM_CONFORMER_RMSD>
1

> <PUBCHEM_CONFORMER_DIVERSEORDER>
5
468
83
47
148
253
107
165
37
319
38
372
229
366
6
133
449
99
267
501
401
237
66
464
1
323
184
392
22
39
98
36
442
477
164
63
23
14
226
409
250
354
10
72
87
152
405
32
261
490
33
17
74
375
102
302
408
150
29
115
236
3
82
248
7
78
333
454
403
225
347
105
24
367
31
124
90
394
56
20
110
57
486
95
443
109
388
186
61
259
264
391
390
103
231
217
101
268
73
125
130
313
311
358
69
228
331
27
26
444
4
40
428
483
208
127
455
60
336
356
431
301
398
151
174
238
43
126
249
453
198
19
79
446
177
456
41
202
64
503
189
475
430
145
114
242
30
414
77
413
467
222
211
502
143
49
230
192
178
265
93
474
196
81
132
439
70
382
220
21
418
71
469
203
314
212
167
326
97
369
85
112
42
270
363
54
118
282
135
432
116
473
305
485
76
2
425
25
136
44
197
258
462
129
385
11
108
162
190
224
50
173

> <PUBCHEM_MMFF94_PARTIAL_CHARGES>
30
1 -0.43
10 0.14
11 0.33
12 0.14
13 -0.29
14 -0.28
15 0.18
16 0.09
17 0.14
18 0.14
19 -0.15
2 -0.57
20 -0.15
21 -0.15
22 -0.15
23 0.63
24 0.28
3 -0.63
32 0.15
35 0.06
38 0.15
4 0.06
45 0.15
46 0.15
47 0.15
48 0.15
6 0.14
7 0.14
8 -0.28
9 -0.29

> <PUBCHEM_EFFECTIVE_ROTOR_COUNT>
7.8

> <PUBCHEM_PHARMACOPHORE_FEATURES>
5
1 2 acceptor
1 3 acceptor
3 14 17 18 hydrophobe
6 15 16 19 20 21 22 rings
6 4 5 6 7 8 9 rings

> <PUBCHEM_HEAVY_ATOM_COUNT>
24

> <PUBCHEM_ATOM_DEF_STEREO_COUNT>
0

> <PUBCHEM_ATOM_UDEF_STEREO_COUNT>
1

> <PUBCHEM_BOND_DEF_STEREO_COUNT>
0

> <PUBCHEM_BOND_UDEF_STEREO_COUNT>
0

> <PUBCHEM_ISOTOPIC_ATOM_COUNT>
0

> <PUBCHEM_COMPONENT_COUNT>
1

> <PUBCHEM_CACTVS_TAUTO_COUNT>
3

> <PUBCHEM_CONFORMER_ID>
002E1FFE00000005

> <PUBCHEM_MMFF94_ENERGY>
46.4185

> <PUBCHEM_FEATURE_SELFOVERLAP>
25.376

> <PUBCHEM_SHAPE_FINGERPRINT>
10498660 4 18272646814695037537
11640471 11 17822867479706707966
12166972 35 17823674512567574055
13402501 40 18059844086817279969
13583140 156 16371305380149597701
13965767 371 17682664134917312608
14081887 123 18201987824790586105
15297060 5 18126313902654348029
15635459 17 17489300876050880977
20715895 44 17607788518969879645
20739085 24 17531518777379368554
20905425 154 17621031397016365753
22749437 52 18191860124645362865
235170 7 16271633555853736133
23557571 272 18271246130896251990
3052486 1 18410294726895206832
35225 105 18199176291906517997
3797600 57 17607270893051718171
394222 165 17169282622592264100
5895379 119 18338812160221820044
7064713 232 18265327305438468145

> <PUBCHEM_SHAPE_MULTIPOLES>
477.19
7.85
3.29
2.62
0.48
1.04
1.49
1.51
-1.5
2.8
-0.42
-3.49
0.63
-0.77

> <PUBCHEM_SHAPE_SELFOVERLAP>
984.929

> <PUBCHEM_SHAPE_VOLUME>
272.8

> <PUBCHEM_COORDINATE_TYPE>
2
5
10

$$$$
