3023273
  -OEChem-11232109193D

 29 29  0     0  0  0  0  0  0999 V2000
   -3.4999   -1.1637    0.9666 S   0  0  0  0  0  0  0  0  0  0  0  0
    1.0304    0.3167   -0.4481 O   0  0  0  0  0  0  0  0  0  0  0  0
    2.6236    1.5755    0.6461 O   0  0  0  0  0  0  0  0  0  0  0  0
   -1.6486   -1.2490   -0.8355 N   0  0  0  0  0  0  0  0  0  0  0  0
    3.0091   -0.7869    0.2007 C   0  0  0  0  0  0  0  0  0  0  0  0
   -1.1052    1.1020   -1.2696 C   0  0  0  0  0  0  0  0  0  0  0  0
    0.1896    1.4704   -0.5511 C   0  0  0  0  0  0  0  0  0  0  0  0
   -1.9034    0.0628   -0.5351 C   0  0  0  0  0  0  0  0  0  0  0  0
    2.2280    0.5153    0.1793 C   0  0  0  0  0  0  0  0  0  0  0  0
    3.8586   -0.8981   -1.0597 C   0  0  0  0  0  0  0  0  0  0  0  0
    3.8760   -0.8775    1.4539 C   0  0  0  0  0  0  0  0  0  0  0  0
   -2.8581    0.3239    0.4044 C   0  0  0  0  0  0  0  0  0  0  0  0
   -3.3601    1.6032    0.9447 C   0  0  0  0  0  0  0  0  0  0  0  0
   -2.4397   -1.9946   -0.0965 C   0  0  0  0  0  0  0  0  0  0  0  0
    2.2921   -1.6168    0.2345 H   0  0  0  0  0  0  0  0  0  0  0  0
   -0.8644    0.7071   -2.2649 H   0  0  0  0  0  0  0  0  0  0  0  0
   -1.7109    2.0026   -1.4231 H   0  0  0  0  0  0  0  0  0  0  0  0
    0.7127    2.2455   -1.1232 H   0  0  0  0  0  0  0  0  0  0  0  0
   -0.0259    1.8512    0.4544 H   0  0  0  0  0  0  0  0  0  0  0  0
    4.4112   -1.8430   -1.0774 H   0  0  0  0  0  0  0  0  0  0  0  0
    4.5811   -0.0771   -1.1261 H   0  0  0  0  0  0  0  0  0  0  0  0
    3.2313   -0.8556   -1.9568 H   0  0  0  0  0  0  0  0  0  0  0  0
    4.3896   -1.8433    1.5028 H   0  0  0  0  0  0  0  0  0  0  0  0
    3.2648   -0.7715    2.3568 H   0  0  0  0  0  0  0  0  0  0  0  0
    4.6352   -0.0877    1.4747 H   0  0  0  0  0  0  0  0  0  0  0  0
   -4.1457    2.0064    0.2972 H   0  0  0  0  0  0  0  0  0  0  0  0
   -3.7740    1.4927    1.9526 H   0  0  0  0  0  0  0  0  0  0  0  0
   -2.5582    2.3461    1.0056 H   0  0  0  0  0  0  0  0  0  0  0  0
   -2.4282   -3.0746   -0.1509 H   0  0  0  0  0  0  0  0  0  0  0  0
  1 12  1  0  0  0  0
  1 14  1  0  0  0  0
  2  7  1  0  0  0  0
  2  9  1  0  0  0  0
  3  9  2  0  0  0  0
  4  8  1  0  0  0  0
  4 14  2  0  0  0  0
  5  9  1  0  0  0  0
  5 10  1  0  0  0  0
  5 11  1  0  0  0  0
  5 15  1  0  0  0  0
  6  7  1  0  0  0  0
  6  8  1  0  0  0  0
  6 16  1  0  0  0  0
  6 17  1  0  0  0  0
  7 18  1  0  0  0  0
  7 19  1  0  0  0  0
  8 12  2  0  0  0  0
 10 20  1  0  0  0  0
 10 21  1  0  0  0  0
 10 22  1  0  0  0  0
 11 23  1  0  0  0  0
 11 24  1  0  0  0  0
 11 25  1  0  0  0  0
 12 13  1  0  0  0  0
 13 26  1  0  0  0  0
 13 27  1  0  0  0  0
 13 28  1  0  0  0  0
 14 29  1  0  0  0  0
M  END
> <PUBCHEM_COMPOUND_CID>
3023273

> <PUBCHEM_CONFORMER_RMSD>
0.6

> <PUBCHEM_CONFORMER_DIVERSEORDER>
1
62
6
102
169
220
115
161
243
134
232
8
18
239
26
211
77
173
241
85
55
138
233
221
208
10
231
143
236
123
181
9
150
199
237
157
110
176
242
20
222
203
153
78
170
16
209
186
188
215
51
60
177
105
22
155
136
172
171
45
119
41
135
228
164
57
24
35
160
107
184
67
5
19
141
87
40
71
79
182
93
214
128
152
15
212
174
30
133
25
52
13
96
225
187
163
59
127
90
94
108
84
148
112
82
224
230
120
98
103
36
23
213
109
227
180
66
29
124
50
21
75
74
49
7
131
89
195
53
168
146
116
240
149
216
38
46
191
238
179
166
12
34
196
132
129
205
117
27
31
91
142
167
217
61
198
56
139
39
86
235
145
200
219
202
189
97
159
185
92
154
83
32
70
3
223
147
99
14
125
204
226
130
201
175
193
2
192
47
76
33
72
121
54
37
106
126
210
95
158
42
63
207
190
178
58
44
101
64
73
68
206
151
244
229
88
65
194
11
183
197
17
114
111
165
48
4
104
28
156
69
144
162
234
81
100
218
137
80
113
140
122
43
118

> <PUBCHEM_MMFF94_PARTIAL_CHARGES>
13
1 -0.08
12 -0.14
13 0.18
14 0.23
2 -0.43
29 0.15
3 -0.57
4 -0.57
5 0.06
6 0.18
7 0.28
8 0.05
9 0.66

> <PUBCHEM_EFFECTIVE_ROTOR_COUNT>
5

> <PUBCHEM_PHARMACOPHORE_FEATURES>
4
1 3 acceptor
1 4 acceptor
3 5 10 11 hydrophobe
5 1 4 8 12 14 rings

> <PUBCHEM_HEAVY_ATOM_COUNT>
14

> <PUBCHEM_ATOM_DEF_STEREO_COUNT>
0

> <PUBCHEM_ATOM_UDEF_STEREO_COUNT>
0

> <PUBCHEM_BOND_DEF_STEREO_COUNT>
0

> <PUBCHEM_BOND_UDEF_STEREO_COUNT>
0

> <PUBCHEM_ISOTOPIC_ATOM_COUNT>
0

> <PUBCHEM_COMPONENT_COUNT>
1

> <PUBCHEM_CACTVS_TAUTO_COUNT>
1

> <PUBCHEM_CONFORMER_ID>
002E21A900000001

> <PUBCHEM_MMFF94_ENERGY>
11.6736

> <PUBCHEM_FEATURE_SELFOVERLAP>
20.297

> <PUBCHEM_SHAPE_FINGERPRINT>
10618630 7 17967530211456237487
10799339 124 17561084666044618098
12251169 10 18272088309494736301
12382932 28 18343022177032273649
124424 183 17203328870954625969
12553582 1 18186519886789624118
12932764 1 18113330895328964716
13296908 3 18040988570481189444
13675066 3 17489869310867092282
13764800 53 12175340374240281535
14123260 362 12679171769411385114
15239191 94 17967813829932969322
15276787 5 17703796889983840821
15375462 189 18040718035028651602
17804303 29 18341624693410930509
18522851 12 17894919507425029938
19107657 47 15339120091794509478
19422 9 18186812395363199437
19766037 51 17458354064614121235
20281407 28 17821727243051474429
20281475 54 18261393313137420198
20361792 2 17168141277756236869
20442098 301 18270961361763839494
20767249 462 11671778286815209714
22169311 14 18202285788051611865
22445834 79 18263931106106778493
22485316 2 17966968322465291788
23402539 116 18131064923422841661
23557571 272 14924487745911105236
23598291 2 18041580112200933133
3082319 5 11169902892496162072
3268164 11 8934708981534657923
328317 168 12391509763561970843
528716 315 11097858488640208875
5706482 22 18201721709302240665

> <PUBCHEM_SHAPE_MULTIPOLES>
275.24
7.81
1.89
1.24
4.16
0.08
-0.08
2.3
-2.21
-0.99
-0.07
0.31
0.03
-0.18

> <PUBCHEM_SHAPE_SELFOVERLAP>
536.924

> <PUBCHEM_SHAPE_VOLUME>
169

> <PUBCHEM_COORDINATE_TYPE>
2
5
10

$$$$
