3023951
  -OEChem-11232109193D

 39 39  0     0  0  0  0  0  0999 V2000
   -2.0676   -0.1045    0.1347 O   0  0  0  0  0  0  0  0  0  0  0  0
   -3.5646    1.5137   -0.5460 O   0  0  0  0  0  0  0  0  0  0  0  0
    2.8256    0.2685    0.3499 C   0  0  0  0  0  0  0  0  0  0  0  0
    2.9973   -1.0266   -0.4553 C   0  0  0  0  0  0  0  0  0  0  0  0
    4.0247    1.2036    0.1428 C   0  0  0  0  0  0  0  0  0  0  0  0
    4.3193   -1.7197   -0.1330 C   0  0  0  0  0  0  0  0  0  0  0  0
    5.3451    0.5069    0.4640 C   0  0  0  0  0  0  0  0  0  0  0  0
    5.5081   -0.7846   -0.3315 C   0  0  0  0  0  0  0  0  0  0  0  0
    1.5227    0.9703   -0.0287 C   0  0  0  0  0  0  0  0  0  0  0  0
    0.3193    0.0679    0.2130 C   0  0  0  0  0  0  0  0  0  0  0  0
   -0.9842    0.7778   -0.1239 C   0  0  0  0  0  0  0  0  0  0  0  0
   -3.3188    0.3930   -0.1214 C   0  0  0  0  0  0  0  0  0  0  0  0
   -4.3513   -0.6619    0.2046 C   0  0  0  0  0  0  0  0  0  0  0  0
   -5.7741   -0.1625   -0.0346 C   0  0  0  0  0  0  0  0  0  0  0  0
   -6.8014   -1.2418    0.2654 C   0  0  0  0  0  0  0  0  0  0  0  0
    2.7817    0.0065    1.4162 H   0  0  0  0  0  0  0  0  0  0  0  0
    2.9509   -0.8123   -1.5305 H   0  0  0  0  0  0  0  0  0  0  0  0
    2.2029   -1.7450   -0.2320 H   0  0  0  0  0  0  0  0  0  0  0  0
    3.9213    2.0913    0.7781 H   0  0  0  0  0  0  0  0  0  0  0  0
    4.0478    1.5572   -0.8959 H   0  0  0  0  0  0  0  0  0  0  0  0
    4.4368   -2.6042   -0.7693 H   0  0  0  0  0  0  0  0  0  0  0  0
    4.3028   -2.0731    0.9054 H   0  0  0  0  0  0  0  0  0  0  0  0
    5.3874    0.2826    1.5369 H   0  0  0  0  0  0  0  0  0  0  0  0
    6.1803    1.1819    0.2458 H   0  0  0  0  0  0  0  0  0  0  0  0
    1.4168    1.8869    0.5649 H   0  0  0  0  0  0  0  0  0  0  0  0
    1.5491    1.2755   -1.0824 H   0  0  0  0  0  0  0  0  0  0  0  0
    6.4309   -1.2913   -0.0276 H   0  0  0  0  0  0  0  0  0  0  0  0
    5.6103   -0.5460   -1.3974 H   0  0  0  0  0  0  0  0  0  0  0  0
    0.3578   -0.8363   -0.4027 H   0  0  0  0  0  0  0  0  0  0  0  0
    0.2931   -0.2705    1.2562 H   0  0  0  0  0  0  0  0  0  0  0  0
   -1.0924    1.6768    0.4942 H   0  0  0  0  0  0  0  0  0  0  0  0
   -0.9927    1.0666   -1.1817 H   0  0  0  0  0  0  0  0  0  0  0  0
   -4.1542   -1.5361   -0.4259 H   0  0  0  0  0  0  0  0  0  0  0  0
   -4.2314   -0.9454    1.2562 H   0  0  0  0  0  0  0  0  0  0  0  0
   -5.9732    0.7137    0.5940 H   0  0  0  0  0  0  0  0  0  0  0  0
   -5.8869    0.1630   -1.0757 H   0  0  0  0  0  0  0  0  0  0  0  0
   -7.8127   -0.8622    0.0885 H   0  0  0  0  0  0  0  0  0  0  0  0
   -6.6502   -2.1165   -0.3752 H   0  0  0  0  0  0  0  0  0  0  0  0
   -6.7374   -1.5647    1.3094 H   0  0  0  0  0  0  0  0  0  0  0  0
  1 11  1  0  0  0  0
  1 12  1  0  0  0  0
  2 12  2  0  0  0  0
  3  4  1  0  0  0  0
  3  5  1  0  0  0  0
  3  9  1  0  0  0  0
  3 16  1  0  0  0  0
  4  6  1  0  0  0  0
  4 17  1  0  0  0  0
  4 18  1  0  0  0  0
  5  7  1  0  0  0  0
  5 19  1  0  0  0  0
  5 20  1  0  0  0  0
  6  8  1  0  0  0  0
  6 21  1  0  0  0  0
  6 22  1  0  0  0  0
  7  8  1  0  0  0  0
  7 23  1  0  0  0  0
  7 24  1  0  0  0  0
  8 27  1  0  0  0  0
  8 28  1  0  0  0  0
  9 10  1  0  0  0  0
  9 25  1  0  0  0  0
  9 26  1  0  0  0  0
 10 11  1  0  0  0  0
 10 29  1  0  0  0  0
 10 30  1  0  0  0  0
 11 31  1  0  0  0  0
 11 32  1  0  0  0  0
 12 13  1  0  0  0  0
 13 14  1  0  0  0  0
 13 33  1  0  0  0  0
 13 34  1  0  0  0  0
 14 15  1  0  0  0  0
 14 35  1  0  0  0  0
 14 36  1  0  0  0  0
 15 37  1  0  0  0  0
 15 38  1  0  0  0  0
 15 39  1  0  0  0  0
M  END
> <PUBCHEM_COMPOUND_CID>
3023951

> <PUBCHEM_CONFORMER_RMSD>
0.8

> <PUBCHEM_CONFORMER_DIVERSEORDER>
1
219
126
204
282
5
297
269
94
42
224
20
206
289
76
256
227
212
68
104
143
277
3
292
52
154
184
195
271
61
278
34
258
98
257
250
87
9
234
152
75
133
245
169
237
97
21
175
168
19
180
149
89
70
222
6
135
293
53
303
139
32
242
301
10
120
71
159
196
121
287
136
7
2
101
286
229
36
198
86
69
218
4
217
108
54
283
144
88
29
79
300
115
84
167
225
203
272
17
26
13
140
35
67
276
66
208
137
244
111
243
185
30
171
99
238
296
231
284
116
33
211
145
226
73
295
294
37
16
55
153
158
228
156
85
24
63
65
255
12
130
178
249
181
201
155
96
199
253
173
214
132
38
215
46
146
288
78
81
44
183
254
8
157
194
273
280
161
200
230
239
281
25
124
40
193
164
221
45
285
236
50
151
165
48
291
47
247
264
117
15
182
114
259
270
299
129
109
127
252
188
14
28
147
51
205
220
11
105
209
95
186
62
197
202
232
118
138
160
125
260
192
39
112
190
22
265
58
251
235
210
248
134
113
106
91
290
172
27
223
128
191
103
119
262
107
275
142
56
233
123
102
213
162
110
179
80
176
59
74
31
41
266
216
57
298
174
241
177
166
83
163
60
207
122
93
261
268
18
82
72
279
64
90
170
187
150
189
43
246
302
148
23
77
267
92
49
274
131
141
100
240
263

> <PUBCHEM_MMFF94_PARTIAL_CHARGES>
5
1 -0.43
11 0.28
12 0.66
13 0.06
2 -0.57

> <PUBCHEM_EFFECTIVE_ROTOR_COUNT>
8.2

> <PUBCHEM_PHARMACOPHORE_FEATURES>
3
1 15 hydrophobe
1 2 acceptor
6 3 4 5 6 7 8 rings

> <PUBCHEM_HEAVY_ATOM_COUNT>
15

> <PUBCHEM_ATOM_DEF_STEREO_COUNT>
0

> <PUBCHEM_ATOM_UDEF_STEREO_COUNT>
0

> <PUBCHEM_BOND_DEF_STEREO_COUNT>
0

> <PUBCHEM_BOND_UDEF_STEREO_COUNT>
0

> <PUBCHEM_ISOTOPIC_ATOM_COUNT>
0

> <PUBCHEM_COMPONENT_COUNT>
1

> <PUBCHEM_CACTVS_TAUTO_COUNT>
1

> <PUBCHEM_CONFORMER_ID>
002E244F00000001

> <PUBCHEM_MMFF94_ENERGY>
7.6114

> <PUBCHEM_FEATURE_SELFOVERLAP>
15.223

> <PUBCHEM_SHAPE_FINGERPRINT>
10354089 29 13902191486600754306
11287383 113 18408886247909373496
117890 112 9439404627173302383
12596602 18 17561368378720740395
12616971 3 15913037737995891649
12714333 28 12468356860151796535
13073987 5 18272933786750118808
13167823 11 18342172258712564550
13288520 33 18407760348798972901
13533116 47 17346883321428576454
13955234 65 18130780184064855360
14123238 8 18410856563950685056
1420 363 18333734628367155251
14251718 22 18259703401982332325
14251732 16 18341049713396602769
14350574 20 18334576854237082317
15048467 5 9367349232406621283
15716309 27 18060138756629608695
17834072 33 18343018908678232020
17834076 25 14261635036228971909
17844677 252 18411987944231068369
200 152 18131067112990882336
20645477 70 18342177722491382742
20767249 213 8646772192758151427
21150785 3 17168151160607925166
21267235 1 18202289070255789718
21623969 137 18131357414284005775
220451 1 17418373618615347935
23402539 116 17968089802882598021
23536379 177 18343866597999793521
23557571 272 17821726104790351853
23559900 14 18261389018249473105
239999 70 18412266121506059726
33824 294 18411698756342212202
3545911 37 18342457062737069040
4214541 1 18411136896614132325
42788 4 18411418419046181057
465052 167 18130791123236184630
5104073 3 18201153243972748920
542803 24 14764347149842689801
57483677 66 18411978061706076831
59682541 35 18272080648148735330

> <PUBCHEM_SHAPE_MULTIPOLES>
296.95
16.93
1.42
0.68
15.65
0.19
0
5.25
0.72
-0.66
-0.09
-0.09
0
0.74

> <PUBCHEM_SHAPE_SELFOVERLAP>
567.747

> <PUBCHEM_SHAPE_VOLUME>
180.6

> <PUBCHEM_COORDINATE_TYPE>
2
5
10

$$$$
