3024003
  -OEChem-11232108433D

 29 30  0     1  0  0  0  0  0999 V2000
    0.8901    1.4415   -0.2402 O   0  0  0  0  0  0  0  0  0  0  0  0
    2.7567   -0.7541   -0.0797 C   0  0  1  0  0  0  0  0  0  0  0  0
    1.2598   -0.9254    0.2081 C   0  0  0  0  0  0  0  0  0  0  0  0
    0.4405    0.1194   -0.5615 C   0  0  1  0  0  0  0  0  0  0  0  0
    3.1688    0.7014    0.1645 C   0  0  0  0  0  0  0  0  0  0  0  0
    2.2554    1.6541   -0.5965 C   0  0  0  0  0  0  0  0  0  0  0  0
    3.5927   -1.7116    0.7654 C   0  0  0  0  0  0  0  0  0  0  0  0
   -1.0340    0.0116   -0.2398 C   0  0  0  0  0  0  0  0  0  0  0  0
   -1.8560   -0.8192   -1.0019 C   0  0  0  0  0  0  0  0  0  0  0  0
   -1.5728    0.7432    0.8189 C   0  0  0  0  0  0  0  0  0  0  0  0
   -3.2155   -0.9183   -0.7056 C   0  0  0  0  0  0  0  0  0  0  0  0
   -2.9322    0.6440    1.1153 C   0  0  0  0  0  0  0  0  0  0  0  0
   -3.7535   -0.1867    0.3530 C   0  0  0  0  0  0  0  0  0  0  0  0
    2.9348   -0.9918   -1.1369 H   0  0  0  0  0  0  0  0  0  0  0  0
    1.0887   -0.8072    1.2868 H   0  0  0  0  0  0  0  0  0  0  0  0
    0.9372   -1.9394   -0.0584 H   0  0  0  0  0  0  0  0  0  0  0  0
    0.5704   -0.0204   -1.6434 H   0  0  0  0  0  0  0  0  0  0  0  0
    4.2102    0.8619   -0.1357 H   0  0  0  0  0  0  0  0  0  0  0  0
    3.0966    0.9213    1.2373 H   0  0  0  0  0  0  0  0  0  0  0  0
    2.5072    2.6895   -0.3460 H   0  0  0  0  0  0  0  0  0  0  0  0
    2.3724    1.5388   -1.6804 H   0  0  0  0  0  0  0  0  0  0  0  0
    3.4565   -1.5227    1.8356 H   0  0  0  0  0  0  0  0  0  0  0  0
    3.3108   -2.7509    0.5666 H   0  0  0  0  0  0  0  0  0  0  0  0
    4.6577   -1.6024    0.5353 H   0  0  0  0  0  0  0  0  0  0  0  0
   -1.4482   -1.3958   -1.8279 H   0  0  0  0  0  0  0  0  0  0  0  0
   -0.9526    1.3874    1.4360 H   0  0  0  0  0  0  0  0  0  0  0  0
   -3.8548   -1.5657   -1.2986 H   0  0  0  0  0  0  0  0  0  0  0  0
   -3.3510    1.2112    1.9415 H   0  0  0  0  0  0  0  0  0  0  0  0
   -4.8118   -0.2645    0.5844 H   0  0  0  0  0  0  0  0  0  0  0  0
  1  4  1  0  0  0  0
  1  6  1  0  0  0  0
  2  3  1  0  0  0  0
  2  5  1  0  0  0  0
  2  7  1  0  0  0  0
  2 14  1  0  0  0  0
  3  4  1  0  0  0  0
  3 15  1  0  0  0  0
  3 16  1  0  0  0  0
  4  8  1  0  0  0  0
  4 17  1  0  0  0  0
  5  6  1  0  0  0  0
  5 18  1  0  0  0  0
  5 19  1  0  0  0  0
  6 20  1  0  0  0  0
  6 21  1  0  0  0  0
  7 22  1  0  0  0  0
  7 23  1  0  0  0  0
  7 24  1  0  0  0  0
  8  9  2  0  0  0  0
  8 10  1  0  0  0  0
  9 11  1  0  0  0  0
  9 25  1  0  0  0  0
 10 12  2  0  0  0  0
 10 26  1  0  0  0  0
 11 13  2  0  0  0  0
 11 27  1  0  0  0  0
 12 13  1  0  0  0  0
 12 28  1  0  0  0  0
 13 29  1  0  0  0  0
M  END
> <PUBCHEM_COMPOUND_CID>
3024003

> <PUBCHEM_CONFORMER_RMSD>
0.6

> <PUBCHEM_CONFORMER_DIVERSEORDER>
1
2
4
5
6
3

> <PUBCHEM_MMFF94_PARTIAL_CHARGES>
14
1 -0.56
10 -0.15
11 -0.15
12 -0.15
13 -0.15
25 0.15
26 0.15
27 0.15
28 0.15
29 0.15
4 0.42
6 0.28
8 -0.14
9 -0.15

> <PUBCHEM_EFFECTIVE_ROTOR_COUNT>
2.2

> <PUBCHEM_PHARMACOPHORE_FEATURES>
3
1 1 acceptor
6 1 2 3 4 5 6 rings
6 8 9 10 11 12 13 rings

> <PUBCHEM_HEAVY_ATOM_COUNT>
13

> <PUBCHEM_ATOM_DEF_STEREO_COUNT>
0

> <PUBCHEM_ATOM_UDEF_STEREO_COUNT>
2

> <PUBCHEM_BOND_DEF_STEREO_COUNT>
0

> <PUBCHEM_BOND_UDEF_STEREO_COUNT>
0

> <PUBCHEM_ISOTOPIC_ATOM_COUNT>
0

> <PUBCHEM_COMPONENT_COUNT>
1

> <PUBCHEM_CACTVS_TAUTO_COUNT>
1

> <PUBCHEM_CONFORMER_ID>
002E248300000001

> <PUBCHEM_MMFF94_ENERGY>
29.2259

> <PUBCHEM_FEATURE_SELFOVERLAP>
15.223

> <PUBCHEM_SHAPE_FINGERPRINT>
10980938 120 18410295826316916892
11578080 2 17984103116068500833
11769659 78 18412536635045638543
12202030 40 16950863469244981643
12251169 10 18201717315018135170
12932764 1 18409735057806059460
13296908 3 17022620879333756911
13538477 17 18059851826495806143
13581323 91 17489867133181581607
14144814 61 18272373083117093597
14251717 144 18334008415083568994
15375462 189 18271530887306767017
15669948 3 17560518529257157607
15775835 57 18202291332843919488
16945 1 18114464547699216948
1813 80 18191036608017084926
18186145 218 18408042913684741431
19422 9 18342740732104743719
200 152 18342164579854209055
20279233 1 16732698380514406393
20281407 28 17022626359690979715
20361792 2 18187360991683610686
204376 136 17899137397713059972
20559304 39 18131073735898920496
20645477 70 18187353320650889719
20711985 344 16734655374026459452
20715346 28 16805325538834558141
20871998 22 18195810665966812870
21501925 9 18410283701618900642
22445834 79 18413108346584566155
2255824 54 18334862740350999366
23048698 100 18411140251046510825
23402539 116 17418083288239245885
23463225 33 18341896281325433446
23557571 272 15338839806618574871
3248919 1 17847061069044855551
474 4 18122341552117392112
57096353 35 18128254682500860797
581208 293 18260545666892093484
77492 1 18272654571026211429

> <PUBCHEM_SHAPE_MULTIPOLES>
261.66
6.74
1.52
1
0.37
0.09
-0.05
-1.43
-1.07
-1.22
0.01
0.4
-0.02
-1.06

> <PUBCHEM_SHAPE_SELFOVERLAP>
542.816

> <PUBCHEM_SHAPE_VOLUME>
148.8

> <PUBCHEM_COORDINATE_TYPE>
2
5
10

$$$$
