3024273
  -OEChem-11232108523D

 25 24  0     1  0  0  0  0  0999 V2000
    1.8360    2.3486   -0.3256 S   0  0  0  0  0  0  0  0  0  0  0  0
   -2.7380   -0.0613   -0.4540 O   0  0  0  0  0  0  0  0  0  0  0  0
    0.7361    1.1259    0.4815 C   0  0  2  0  0  0  0  0  0  0  0  0
    1.4765   -0.2007    0.7433 C   0  0  0  0  0  0  0  0  0  0  0  0
   -0.5625    0.9349   -0.3171 C   0  0  0  0  0  0  0  0  0  0  0  0
    1.9315   -0.9757   -0.4987 C   0  0  0  0  0  0  0  0  0  0  0  0
   -1.5766    0.0186    0.3634 C   0  0  0  0  0  0  0  0  0  0  0  0
    2.6179   -2.2784   -0.1124 C   0  0  0  0  0  0  0  0  0  0  0  0
   -3.7208   -0.9118    0.1197 C   0  0  0  0  0  0  0  0  0  0  0  0
    0.4790    1.5580    1.4562 H   0  0  0  0  0  0  0  0  0  0  0  0
    2.3582    0.0092    1.3650 H   0  0  0  0  0  0  0  0  0  0  0  0
    0.8468   -0.8517    1.3617 H   0  0  0  0  0  0  0  0  0  0  0  0
   -1.0440    1.9104   -0.4729 H   0  0  0  0  0  0  0  0  0  0  0  0
   -0.3570    0.5569   -1.3266 H   0  0  0  0  0  0  0  0  0  0  0  0
    2.6304   -0.3817   -1.0958 H   0  0  0  0  0  0  0  0  0  0  0  0
    1.0740   -1.2134   -1.1365 H   0  0  0  0  0  0  0  0  0  0  0  0
   -1.8451    0.4187    1.3478 H   0  0  0  0  0  0  0  0  0  0  0  0
   -1.1685   -0.9896    0.4858 H   0  0  0  0  0  0  0  0  0  0  0  0
    2.9356   -2.8196   -1.0092 H   0  0  0  0  0  0  0  0  0  0  0  0
    1.9404   -2.9266    0.4526 H   0  0  0  0  0  0  0  0  0  0  0  0
    3.5042   -2.0879    0.5012 H   0  0  0  0  0  0  0  0  0  0  0  0
    1.8946    1.7486   -1.5232 H   0  0  0  0  0  0  0  0  0  0  0  0
   -4.5889   -0.9319   -0.5447 H   0  0  0  0  0  0  0  0  0  0  0  0
   -4.0370   -0.5299    1.0952 H   0  0  0  0  0  0  0  0  0  0  0  0
   -3.3354   -1.9311    0.2203 H   0  0  0  0  0  0  0  0  0  0  0  0
  1  3  1  0  0  0  0
  1 22  1  0  0  0  0
  2  7  1  0  0  0  0
  2  9  1  0  0  0  0
  3  4  1  0  0  0  0
  3  5  1  0  0  0  0
  3 10  1  0  0  0  0
  4  6  1  0  0  0  0
  4 11  1  0  0  0  0
  4 12  1  0  0  0  0
  5  7  1  0  0  0  0
  5 13  1  0  0  0  0
  5 14  1  0  0  0  0
  6  8  1  0  0  0  0
  6 15  1  0  0  0  0
  6 16  1  0  0  0  0
  7 17  1  0  0  0  0
  7 18  1  0  0  0  0
  8 19  1  0  0  0  0
  8 20  1  0  0  0  0
  8 21  1  0  0  0  0
  9 23  1  0  0  0  0
  9 24  1  0  0  0  0
  9 25  1  0  0  0  0
M  END
> <PUBCHEM_COMPOUND_CID>
3024273

> <PUBCHEM_CONFORMER_RMSD>
0.6

> <PUBCHEM_CONFORMER_DIVERSEORDER>
1
96
45
47
81
53
102
63
13
58
68
99
87
24
8
46
30
34
100
40
26
92
84
83
52
31
85
51
14
82
66
73
11
29
64
62
32
60
76
3
59
95
79
18
17
93
56
88
72
75
86
44
48
69
19
74
25
94
10
28
42
38
36
41
15
97
101
9
4
23
7
39
16
20
54
67
33
27
77
2
78
57
5
80
55
6
12
49
98
37
70
22
35
21
71
65
90
61
43
50
89
91

> <PUBCHEM_MMFF94_PARTIAL_CHARGES>
6
1 -0.41
2 -0.56
22 0.18
3 0.23
7 0.28
9 0.28

> <PUBCHEM_EFFECTIVE_ROTOR_COUNT>
5

> <PUBCHEM_PHARMACOPHORE_FEATURES>
2
1 2 acceptor
1 8 hydrophobe

> <PUBCHEM_HEAVY_ATOM_COUNT>
9

> <PUBCHEM_ATOM_DEF_STEREO_COUNT>
0

> <PUBCHEM_ATOM_UDEF_STEREO_COUNT>
1

> <PUBCHEM_BOND_DEF_STEREO_COUNT>
0

> <PUBCHEM_BOND_UDEF_STEREO_COUNT>
0

> <PUBCHEM_ISOTOPIC_ATOM_COUNT>
0

> <PUBCHEM_COMPONENT_COUNT>
1

> <PUBCHEM_CACTVS_TAUTO_COUNT>
1

> <PUBCHEM_CONFORMER_ID>
002E259100000001

> <PUBCHEM_MMFF94_ENERGY>
12.1345

> <PUBCHEM_FEATURE_SELFOVERLAP>
10.148

> <PUBCHEM_SHAPE_FINGERPRINT>
1 1 18194118740625095908
12932764 1 17417529237157368369
14128692 85 18340495452251627044
17990270 104 18409444778119790699
20201158 50 18408039623771597139
20645477 70 18336255838884885391
20653091 64 18342745100128578080
20708731 107 18410579521559578548
20711978 1 18411418388712378137
20711978 78 18339908402920521812
20711985 344 17760917451186686608
20871998 22 18339075991214058362
23530152 11 17978794832900695798
23552333 60 17988369259627272736
23552423 10 18410577279634174721
23552449 11 18261381265290009433
3248919 1 18338505443827584713
528862 383 18341610460015886140
81539 233 18116429443618596636

> <PUBCHEM_SHAPE_MULTIPOLES>
183.2
5.02
2.38
0.79
5.59
0.03
-0.04
-2.4
0.34
-2.77
0.29
-0.13
0.03
0.07

> <PUBCHEM_SHAPE_SELFOVERLAP>
313.557

> <PUBCHEM_SHAPE_VOLUME>
124.5

> <PUBCHEM_COORDINATE_TYPE>
2
5
10

$$$$
