3025865
  -OEChem-11232109073D

 33 32  0     1  0  0  0  0  0999 V2000
    0.4238   -2.1932   -0.3475 O   0  0  0  0  0  0  0  0  0  0  0  0
   -1.4762   -0.9553    0.5141 C   0  0  1  0  0  0  0  0  0  0  0  0
   -0.1114   -0.8739   -0.2189 C   0  0  1  0  0  0  0  0  0  0  0  0
    0.9421    0.0085    0.4669 C   0  0  0  0  0  0  0  0  0  0  0  0
   -2.0974    0.4420    0.7405 C   0  0  0  0  0  0  0  0  0  0  0  0
    2.2795   -0.0072   -0.2855 C   0  0  0  0  0  0  0  0  0  0  0  0
   -2.4402   -1.8997   -0.2098 C   0  0  0  0  0  0  0  0  0  0  0  0
   -2.4793    1.2120   -0.5296 C   0  0  0  0  0  0  0  0  0  0  0  0
    3.3252    0.8538    0.4241 C   0  0  0  0  0  0  0  0  0  0  0  0
   -3.0301    2.6034   -0.2595 C   0  0  0  0  0  0  0  0  0  0  0  0
    4.6640    0.8096   -0.2949 C   0  0  0  0  0  0  0  0  0  0  0  0
   -1.2983   -1.3954    1.5053 H   0  0  0  0  0  0  0  0  0  0  0  0
   -0.2664   -0.5117   -1.2414 H   0  0  0  0  0  0  0  0  0  0  0  0
    0.5920    1.0436    0.5327 H   0  0  0  0  0  0  0  0  0  0  0  0
    1.1088   -0.3527    1.4894 H   0  0  0  0  0  0  0  0  0  0  0  0
   -3.0054    0.3155    1.3456 H   0  0  0  0  0  0  0  0  0  0  0  0
   -1.4283    1.0547    1.3549 H   0  0  0  0  0  0  0  0  0  0  0  0
    2.1299    0.3607   -1.3078 H   0  0  0  0  0  0  0  0  0  0  0  0
    2.6577   -1.0333   -0.3623 H   0  0  0  0  0  0  0  0  0  0  0  0
   -2.5787   -1.6111   -1.2565 H   0  0  0  0  0  0  0  0  0  0  0  0
   -3.4211   -1.9026    0.2772 H   0  0  0  0  0  0  0  0  0  0  0  0
   -2.0657   -2.9286   -0.1959 H   0  0  0  0  0  0  0  0  0  0  0  0
   -3.2306    0.6483   -1.0934 H   0  0  0  0  0  0  0  0  0  0  0  0
   -1.6044    1.3176   -1.1796 H   0  0  0  0  0  0  0  0  0  0  0  0
    3.4604    0.5031    1.4539 H   0  0  0  0  0  0  0  0  0  0  0  0
    2.9780    1.8921    0.4776 H   0  0  0  0  0  0  0  0  0  0  0  0
    0.5740   -2.5405    0.5484 H   0  0  0  0  0  0  0  0  0  0  0  0
   -3.2863    3.1013   -1.1998 H   0  0  0  0  0  0  0  0  0  0  0  0
   -2.2921    3.2201    0.2630 H   0  0  0  0  0  0  0  0  0  0  0  0
   -3.9332    2.5522    0.3568 H   0  0  0  0  0  0  0  0  0  0  0  0
    5.3956    1.4337    0.2276 H   0  0  0  0  0  0  0  0  0  0  0  0
    5.0553   -0.2120   -0.3337 H   0  0  0  0  0  0  0  0  0  0  0  0
    4.5708    1.1813   -1.3203 H   0  0  0  0  0  0  0  0  0  0  0  0
  1  3  1  0  0  0  0
  1 27  1  0  0  0  0
  2  3  1  0  0  0  0
  2  5  1  0  0  0  0
  2  7  1  0  0  0  0
  2 12  1  0  0  0  0
  3  4  1  0  0  0  0
  3 13  1  0  0  0  0
  4  6  1  0  0  0  0
  4 14  1  0  0  0  0
  4 15  1  0  0  0  0
  5  8  1  0  0  0  0
  5 16  1  0  0  0  0
  5 17  1  0  0  0  0
  6  9  1  0  0  0  0
  6 18  1  0  0  0  0
  6 19  1  0  0  0  0
  7 20  1  0  0  0  0
  7 21  1  0  0  0  0
  7 22  1  0  0  0  0
  8 10  1  0  0  0  0
  8 23  1  0  0  0  0
  8 24  1  0  0  0  0
  9 11  1  0  0  0  0
  9 25  1  0  0  0  0
  9 26  1  0  0  0  0
 10 28  1  0  0  0  0
 10 29  1  0  0  0  0
 10 30  1  0  0  0  0
 11 31  1  0  0  0  0
 11 32  1  0  0  0  0
 11 33  1  0  0  0  0
M  END
> <PUBCHEM_COMPOUND_CID>
3025865

> <PUBCHEM_CONFORMER_RMSD>
0.6

> <PUBCHEM_CONFORMER_DIVERSEORDER>
1
175
46
62
95
144
76
55
143
31
160
88
13
90
122
150
130
29
23
60
2
5
47
131
173
81
99
134
32
57
151
159
113
169
72
37
145
71
35
20
156
91
146
172
89
119
69
25
100
87
163
174
166
106
157
139
82
127
79
161
158
18
171
63
93
165
147
135
78
33
155
49
123
28
109
11
58
16
129
98
74
137
52
107
164
44
118
53
42
133
153
7
43
66
116
65
104
41
125
168
92
142
4
39
148
97
154
120
70
110
8
75
103
101
176
152
64
136
50
105
149
6
59
96
19
140
51
117
132
10
56
128
138
108
115
102
111
17
45
30
85
21
121
126
22
83
14
73
68
141
34
3
84
86
162
124
112
61
15
167
24
170
40
54
9
36
67
12
48
80
114
38
94
27
77
26

> <PUBCHEM_MMFF94_PARTIAL_CHARGES>
3
1 -0.68
27 0.4
3 0.28

> <PUBCHEM_EFFECTIVE_ROTOR_COUNT>
6

> <PUBCHEM_PHARMACOPHORE_FEATURES>
5
1 1 acceptor
1 1 donor
1 10 hydrophobe
1 11 hydrophobe
1 7 hydrophobe

> <PUBCHEM_HEAVY_ATOM_COUNT>
11

> <PUBCHEM_ATOM_DEF_STEREO_COUNT>
0

> <PUBCHEM_ATOM_UDEF_STEREO_COUNT>
2

> <PUBCHEM_BOND_DEF_STEREO_COUNT>
0

> <PUBCHEM_BOND_UDEF_STEREO_COUNT>
0

> <PUBCHEM_ISOTOPIC_ATOM_COUNT>
0

> <PUBCHEM_COMPONENT_COUNT>
1

> <PUBCHEM_CACTVS_TAUTO_COUNT>
1

> <PUBCHEM_CONFORMER_ID>
002E2BC900000001

> <PUBCHEM_MMFF94_ENERGY>
7.8037

> <PUBCHEM_FEATURE_SELFOVERLAP>
25.373

> <PUBCHEM_SHAPE_FINGERPRINT>
10149128 76 18266456503848110189
122479 349 18187931616706997857
12932764 1 17846213418937383314
14123255 52 18265330612468366469
14325111 11 18412546530977251674
14614273 12 18341619230539791787
14897335 6 18337947887936264687
15775835 57 18333731295193160112
1741750 31 18340767035739560481
17834072 32 18408325475462900868
18186145 218 18059868259399253088
18342897 96 18412819166715958559
1986462 14 18200603591617695030
20605781 55 18191863423222678165
20645477 56 18411987952825939969
20645477 70 16988301841141341540
20653085 51 18195529186515390475
20671657 1 18048035164468079271
20711983 171 18334574646697797236
21501502 16 18336816494708624483
21524375 3 18263635178496584057
22959321 8 17988353784934094633
2306618 200 18272940448281155961
23402539 116 18268987768784164159
23500284 214 18337959991249472873
23557571 272 18271817855483391092
305870 269 18261109634700315490
3248919 1 17240486948394247362
6333449 129 18341611542120927601
6430166 295 18409163278032893120

> <PUBCHEM_SHAPE_MULTIPOLES>
220.51
6.85
2.34
0.79
7.82
0.25
0.05
3.94
-0.5
-2.64
-0.38
-0.1
0.04
0.24

> <PUBCHEM_SHAPE_SELFOVERLAP>
393.822

> <PUBCHEM_SHAPE_VOLUME>
143.9

> <PUBCHEM_COORDINATE_TYPE>
2
5
10

$$$$
