3032390
  -OEChem-11232109033D

 16 15  0     1  0  0  0  0  0999 V2000
    0.7211    0.7324   -0.3093 O   0  0  0  0  0  0  0  0  0  0  0  0
    0.6806   -1.6165   -0.0321 O   0  0  0  0  0  0  0  0  0  0  0  0
   -1.3751   -0.4303   -0.2051 C   0  0  0  0  0  0  0  0  0  0  0  0
    0.0651   -0.3764    0.3070 C   0  0  2  0  0  0  0  0  0  0  0  0
   -2.1643    0.8260    0.1306 C   0  0  0  0  0  0  0  0  0  0  0  0
    2.0727    0.8648    0.1088 C   0  0  0  0  0  0  0  0  0  0  0  0
   -1.3730   -0.5641   -1.2943 H   0  0  0  0  0  0  0  0  0  0  0  0
   -1.8817   -1.3086    0.2127 H   0  0  0  0  0  0  0  0  0  0  0  0
    0.0677   -0.2573    1.3976 H   0  0  0  0  0  0  0  0  0  0  0  0
   -2.1908    0.9936    1.2121 H   0  0  0  0  0  0  0  0  0  0  0  0
   -1.7297    1.7107   -0.3449 H   0  0  0  0  0  0  0  0  0  0  0  0
   -3.1957    0.7284   -0.2227 H   0  0  0  0  0  0  0  0  0  0  0  0
    2.6721    0.0202   -0.2430 H   0  0  0  0  0  0  0  0  0  0  0  0
    2.1343    0.9461    1.1983 H   0  0  0  0  0  0  0  0  0  0  0  0
    2.4784    1.7798   -0.3315 H   0  0  0  0  0  0  0  0  0  0  0  0
    1.3661   -1.7904    0.6351 H   0  0  0  0  0  0  0  0  0  0  0  0
  1  4  1  0  0  0  0
  1  6  1  0  0  0  0
  2  4  1  0  0  0  0
  2 16  1  0  0  0  0
  3  4  1  0  0  0  0
  3  5  1  0  0  0  0
  3  7  1  0  0  0  0
  3  8  1  0  0  0  0
  4  9  1  0  0  0  0
  5 10  1  0  0  0  0
  5 11  1  0  0  0  0
  5 12  1  0  0  0  0
  6 13  1  0  0  0  0
  6 14  1  0  0  0  0
  6 15  1  0  0  0  0
M  END
> <PUBCHEM_COMPOUND_CID>
3032390

> <PUBCHEM_CONFORMER_RMSD>
0.4

> <PUBCHEM_CONFORMER_DIVERSEORDER>
4
12
14
8
10
11
3
6
9
7
2
5
13
1

> <PUBCHEM_MMFF94_PARTIAL_CHARGES>
5
1 -0.56
16 0.4
2 -0.68
4 0.56
6 0.28

> <PUBCHEM_EFFECTIVE_ROTOR_COUNT>
2

> <PUBCHEM_PHARMACOPHORE_FEATURES>
4
1 1 acceptor
1 2 acceptor
1 2 donor
1 5 hydrophobe

> <PUBCHEM_HEAVY_ATOM_COUNT>
6

> <PUBCHEM_ATOM_DEF_STEREO_COUNT>
0

> <PUBCHEM_ATOM_UDEF_STEREO_COUNT>
1

> <PUBCHEM_BOND_DEF_STEREO_COUNT>
0

> <PUBCHEM_BOND_UDEF_STEREO_COUNT>
0

> <PUBCHEM_ISOTOPIC_ATOM_COUNT>
0

> <PUBCHEM_COMPONENT_COUNT>
1

> <PUBCHEM_CACTVS_TAUTO_COUNT>
1

> <PUBCHEM_CONFORMER_ID>
002E454600000004

> <PUBCHEM_MMFF94_ENERGY>
4.2923

> <PUBCHEM_FEATURE_SELFOVERLAP>
20.335

> <PUBCHEM_SHAPE_FINGERPRINT>
14390081 3 18273492390318092057
16714656 1 18193278726240930148
20096714 4 18411139138586729553
21040471 1 18337955696186776324
23552449 1 17476636950277446752
24536 1 18337377254518401011
29004967 10 18046070350079400947
5460574 1 9511196143465506949
5943 1 11812835887282731130

> <PUBCHEM_SHAPE_MULTIPOLES>
111.74
2.71
1.32
0.63
0.14
0.38
0.02
-1.14
0.06
-0.21
0
0.02
-0.02
-0.06

> <PUBCHEM_SHAPE_SELFOVERLAP>
192.164

> <PUBCHEM_SHAPE_VOLUME>
75.1

> <PUBCHEM_COORDINATE_TYPE>
2
5
10

$$$$
