3033452
  -OEChem-11232108533D

 45 46  0     1  0  0  0  0  0999 V2000
    4.5432    2.1438    0.9753 O   0  0  0  0  0  0  0  0  0  0  0  0
   -1.5052   -0.8859    0.2344 N   0  0  0  0  0  0  0  0  0  0  0  0
    3.3281    0.5449   -0.3903 C   0  0  0  0  0  0  0  0  0  0  0  0
    3.2466   -0.5536    0.6786 C   0  0  0  0  0  0  0  0  0  0  0  0
    3.3706    1.9805    0.1757 C   0  0  0  0  0  0  0  0  0  0  0  0
    3.1805   -1.9712    0.0893 C   0  0  0  0  0  0  0  0  0  0  0  0
    1.9418   -2.2709   -0.7789 C   0  0  1  0  0  0  0  0  0  0  0  0
    3.4407    2.9914   -0.9736 C   0  0  0  0  0  0  0  0  0  0  0  0
    2.1632    2.2920    1.0618 C   0  0  0  0  0  0  0  0  0  0  0  0
    1.9928   -3.7164   -1.2827 C   0  0  0  0  0  0  0  0  0  0  0  0
    0.6562   -2.0513   -0.0144 C   0  0  0  0  0  0  0  0  0  0  0  0
   -0.2885   -1.1786   -0.4014 C   0  0  0  0  0  0  0  0  0  0  0  0
   -2.4254    0.0222   -0.2076 C   0  0  0  0  0  0  0  0  0  0  0  0
   -3.4769    0.0011    0.7113 C   0  0  0  0  0  0  0  0  0  0  0  0
   -1.9122   -1.4848    1.3848 C   0  0  0  0  0  0  0  0  0  0  0  0
   -3.1392   -0.9543    1.7105 C   0  0  0  0  0  0  0  0  0  0  0  0
   -2.4216    0.8556   -1.3317 C   0  0  0  0  0  0  0  0  0  0  0  0
   -4.5795    0.8526    0.5000 C   0  0  0  0  0  0  0  0  0  0  0  0
   -3.5259    1.6913   -1.5207 C   0  0  0  0  0  0  0  0  0  0  0  0
   -4.5894    1.6914   -0.6203 C   0  0  0  0  0  0  0  0  0  0  0  0
    4.2327    0.3681   -0.9868 H   0  0  0  0  0  0  0  0  0  0  0  0
    2.4726    0.4660   -1.0701 H   0  0  0  0  0  0  0  0  0  0  0  0
    2.3803   -0.3981    1.3289 H   0  0  0  0  0  0  0  0  0  0  0  0
    4.1324   -0.4927    1.3227 H   0  0  0  0  0  0  0  0  0  0  0  0
    4.0858   -2.1461   -0.5063 H   0  0  0  0  0  0  0  0  0  0  0  0
    3.2213   -2.6849    0.9233 H   0  0  0  0  0  0  0  0  0  0  0  0
    1.9675   -1.6244   -1.6645 H   0  0  0  0  0  0  0  0  0  0  0  0
    4.3336    2.8209   -1.5859 H   0  0  0  0  0  0  0  0  0  0  0  0
    2.5590    2.9290   -1.6199 H   0  0  0  0  0  0  0  0  0  0  0  0
    3.5195    4.0165   -0.5936 H   0  0  0  0  0  0  0  0  0  0  0  0
    2.1864    1.7181    1.9940 H   0  0  0  0  0  0  0  0  0  0  0  0
    2.1647    3.3458    1.3650 H   0  0  0  0  0  0  0  0  0  0  0  0
    1.2203    2.0891    0.5434 H   0  0  0  0  0  0  0  0  0  0  0  0
    1.9870   -4.4332   -0.4537 H   0  0  0  0  0  0  0  0  0  0  0  0
    2.9009   -3.8893   -1.8704 H   0  0  0  0  0  0  0  0  0  0  0  0
    1.1335   -3.9384   -1.9256 H   0  0  0  0  0  0  0  0  0  0  0  0
    0.5363   -2.6451    0.8871 H   0  0  0  0  0  0  0  0  0  0  0  0
    4.5563    3.0564    1.3110 H   0  0  0  0  0  0  0  0  0  0  0  0
   -0.1042   -0.6157   -1.3122 H   0  0  0  0  0  0  0  0  0  0  0  0
   -1.3348   -2.2359    1.9062 H   0  0  0  0  0  0  0  0  0  0  0  0
   -3.7296   -1.2252    2.5751 H   0  0  0  0  0  0  0  0  0  0  0  0
   -1.6031    0.8697   -2.0429 H   0  0  0  0  0  0  0  0  0  0  0  0
   -5.4151    0.8629    1.1940 H   0  0  0  0  0  0  0  0  0  0  0  0
   -3.5544    2.3513   -2.3840 H   0  0  0  0  0  0  0  0  0  0  0  0
   -5.4372    2.3502   -0.7886 H   0  0  0  0  0  0  0  0  0  0  0  0
  1  5  1  0  0  0  0
  1 38  1  0  0  0  0
  2 12  1  0  0  0  0
  2 13  1  0  0  0  0
  2 15  1  0  0  0  0
  3  4  1  0  0  0  0
  3  5  1  0  0  0  0
  3 21  1  0  0  0  0
  3 22  1  0  0  0  0
  4  6  1  0  0  0  0
  4 23  1  0  0  0  0
  4 24  1  0  0  0  0
  5  8  1  0  0  0  0
  5  9  1  0  0  0  0
  6  7  1  0  0  0  0
  6 25  1  0  0  0  0
  6 26  1  0  0  0  0
  7 10  1  0  0  0  0
  7 11  1  0  0  0  0
  7 27  1  0  0  0  0
  8 28  1  0  0  0  0
  8 29  1  0  0  0  0
  8 30  1  0  0  0  0
  9 31  1  0  0  0  0
  9 32  1  0  0  0  0
  9 33  1  0  0  0  0
 10 34  1  0  0  0  0
 10 35  1  0  0  0  0
 10 36  1  0  0  0  0
 11 12  2  3  0  0  0
 11 37  1  0  0  0  0
 12 39  1  0  0  0  0
 13 14  1  0  0  0  0
 13 17  2  0  0  0  0
 14 16  1  0  0  0  0
 14 18  2  0  0  0  0
 15 16  2  0  0  0  0
 15 40  1  0  0  0  0
 16 41  1  0  0  0  0
 17 19  1  0  0  0  0
 17 42  1  0  0  0  0
 18 20  1  0  0  0  0
 18 43  1  0  0  0  0
 19 20  2  0  0  0  0
 19 44  1  0  0  0  0
 20 45  1  0  0  0  0
M  END
> <PUBCHEM_COMPOUND_CID>
3033452

> <PUBCHEM_CONFORMER_RMSD>
0.8

> <PUBCHEM_CONFORMER_DIVERSEORDER>
1
80
41
77
36
50
35
13
66
15
97
26
91
53
101
79
82
34
56
83
40
28
98
92
68
14
62
73
64
89
60
3
74
48
90
100
39
58
87
54
31
96
32
17
95
63
99
49
38
46
86
75
57
20
84
45
11
102
76
7
61
9
43
12
22
51
16
59
6
70
55
67
78
5
72
85
69
24
44
81
88
21
18
37
19
4
71
25
2
47
27
29
30
8
10
52
94
65
42
93
23
33

> <PUBCHEM_MMFF94_PARTIAL_CHARGES>
22
1 -0.68
11 -0.29
12 -0.18
13 -0.15
15 -0.3
16 -0.15
17 -0.15
18 -0.15
19 -0.15
2 0.33
20 -0.15
37 0.15
38 0.4
39 0.15
40 0.15
41 0.15
42 0.15
43 0.15
44 0.15
45 0.15
5 0.28
7 0.14

> <PUBCHEM_EFFECTIVE_ROTOR_COUNT>
6

> <PUBCHEM_PHARMACOPHORE_FEATURES>
8
1 1 acceptor
1 1 donor
1 10 hydrophobe
1 2 cation
3 5 8 9 hydrophobe
5 2 13 14 15 16 rings
5 3 4 6 7 11 hydrophobe
6 13 14 17 18 19 20 rings

> <PUBCHEM_HEAVY_ATOM_COUNT>
20

> <PUBCHEM_ATOM_DEF_STEREO_COUNT>
0

> <PUBCHEM_ATOM_UDEF_STEREO_COUNT>
0

> <PUBCHEM_BOND_DEF_STEREO_COUNT>
0

> <PUBCHEM_BOND_UDEF_STEREO_COUNT>
1

> <PUBCHEM_ISOTOPIC_ATOM_COUNT>
0

> <PUBCHEM_COMPONENT_COUNT>
1

> <PUBCHEM_CACTVS_TAUTO_COUNT>
1

> <PUBCHEM_CONFORMER_ID>
002E496C00000001

> <PUBCHEM_MMFF94_ENERGY>
39.7642

> <PUBCHEM_FEATURE_SELFOVERLAP>
40.691

> <PUBCHEM_SHAPE_FINGERPRINT>
10319926 262 17821725031539053978
10871710 139 17327186949163847462
11595378 159 15430036539226111725
12100795 323 18189049961671532204
12422481 6 18118936245021916864
12633257 1 17895460462945718376
12769317 202 18412823564799451274
12788726 201 17037539873745072514
13134695 92 18053385396976817846
13402501 40 18189049815774265900
13583140 156 18188213087531608051
13899415 180 17552639145486636542
14251757 17 18189333468257288521
14251764 38 18335701590197829461
14468879 13 18261391204065846289
14932701 244 16553939934879499660
151778 21 18337399356331039588
15295992 7 18115875096616375539
15342168 16 18343309167074027019
15806764 133 18120959233840590903
1813 80 16984640273383220822
18219364 16 18341899652969726032
19930381 70 18341892996013159553
20567600 299 18201146647003546184
20621476 13 18410007719679079852
20681677 76 18408041797194016171
21475661 188 18187356589205183645
21524375 3 18195807603623560194
21860390 5 18200031725185690758
23227448 37 18411414038158719727
23557571 272 17895493487128845571
23559900 14 17823430305011729791
3524813 1 18115584833777731932
474 4 18343861095761935506
49207404 50 18261399982794265570
495365 180 18271795822485707376
5048184 11 18269556216184467132
5252454 2 18126013899505188224
54672768 99 18407758132016242732
5969126 39 17336191464598032694
633830 44 17488765452706045552
7808743 9 17831591138596670476
81228 2 17404868047093856266

> <PUBCHEM_SHAPE_MULTIPOLES>
400.74
9.66
3.75
1.43
2.98
0.48
0.04
-5.93
0.41
-4.97
-1
0.68
0.02
2.08

> <PUBCHEM_SHAPE_SELFOVERLAP>
828.848

> <PUBCHEM_SHAPE_VOLUME>
232.1

> <PUBCHEM_COORDINATE_TYPE>
2
5
10

$$$$
