3034895
  -OEChem-11232109143D

 33 35  0     1  0  0  0  0  0999 V2000
   -1.6952   -1.0342   -0.0090 O   0  0  0  0  0  0  0  0  0  0  0  0
   -2.1020    1.1342   -0.6840 O   0  0  0  0  0  0  0  0  0  0  0  0
    1.1781    1.0944   -0.6855 C   0  0  2  0  0  0  0  0  0  0  0  0
    0.4526    0.0581    0.2118 C   0  0  2  0  0  0  0  0  0  0  0  0
    2.8771   -0.0365    0.2097 C   0  0  1  0  0  0  0  0  0  0  0  0
    1.6428   -0.7260    0.8313 C   0  0  2  0  0  0  0  0  0  0  0  0
    2.3994    0.3292   -1.1984 C   0  0  0  0  0  0  0  0  0  0  0  0
    1.8469    2.1394    0.2293 C   0  0  0  0  0  0  0  0  0  0  0  0
    3.0185    1.3586    0.8471 C   0  0  0  0  0  0  0  0  0  0  0  0
   -0.3888   -0.9706   -0.5648 C   0  0  1  0  0  0  0  0  0  0  0  0
    1.4182   -2.1355    0.3902 C   0  0  0  0  0  0  0  0  0  0  0  0
    0.3132   -2.2686   -0.3471 C   0  0  0  0  0  0  0  0  0  0  0  0
   -2.4562    0.0982   -0.1384 C   0  0  0  0  0  0  0  0  0  0  0  0
   -3.8062   -0.1331    0.4990 C   0  0  0  0  0  0  0  0  0  0  0  0
   -4.6986    1.0924    0.4087 C   0  0  0  0  0  0  0  0  0  0  0  0
    0.5470    1.5389   -1.4578 H   0  0  0  0  0  0  0  0  0  0  0  0
   -0.1206    0.5602    1.0008 H   0  0  0  0  0  0  0  0  0  0  0  0
    3.7930   -0.6305    0.2508 H   0  0  0  0  0  0  0  0  0  0  0  0
    1.6432   -0.6712    1.9256 H   0  0  0  0  0  0  0  0  0  0  0  0
    3.1085    0.9659   -1.7392 H   0  0  0  0  0  0  0  0  0  0  0  0
    2.1516   -0.5331   -1.8234 H   0  0  0  0  0  0  0  0  0  0  0  0
    1.1659    2.5327    0.9906 H   0  0  0  0  0  0  0  0  0  0  0  0
    2.2260    2.9841   -0.3572 H   0  0  0  0  0  0  0  0  0  0  0  0
    3.9704    1.8221    0.5642 H   0  0  0  0  0  0  0  0  0  0  0  0
    2.9644    1.3309    1.9400 H   0  0  0  0  0  0  0  0  0  0  0  0
   -0.4552   -0.7517   -1.6370 H   0  0  0  0  0  0  0  0  0  0  0  0
    2.0724   -2.9548    0.6525 H   0  0  0  0  0  0  0  0  0  0  0  0
   -0.0286   -3.2086   -0.7566 H   0  0  0  0  0  0  0  0  0  0  0  0
   -4.2899   -0.9733   -0.0101 H   0  0  0  0  0  0  0  0  0  0  0  0
   -3.6518   -0.3918    1.5518 H   0  0  0  0  0  0  0  0  0  0  0  0
   -4.8763    1.3733   -0.6347 H   0  0  0  0  0  0  0  0  0  0  0  0
   -5.6663    0.8948    0.8797 H   0  0  0  0  0  0  0  0  0  0  0  0
   -4.2408    1.9500    0.9128 H   0  0  0  0  0  0  0  0  0  0  0  0
  1 10  1  0  0  0  0
  1 13  1  0  0  0  0
  2 13  2  0  0  0  0
  3  4  1  0  0  0  0
  3  7  1  0  0  0  0
  3  8  1  0  0  0  0
  3 16  1  0  0  0  0
  4  6  1  0  0  0  0
  4 10  1  0  0  0  0
  4 17  1  0  0  0  0
  5  6  1  0  0  0  0
  5  7  1  0  0  0  0
  5  9  1  0  0  0  0
  5 18  1  0  0  0  0
  6 11  1  0  0  0  0
  6 19  1  0  0  0  0
  7 20  1  0  0  0  0
  7 21  1  0  0  0  0
  8  9  1  0  0  0  0
  8 22  1  0  0  0  0
  8 23  1  0  0  0  0
  9 24  1  0  0  0  0
  9 25  1  0  0  0  0
 10 12  1  0  0  0  0
 10 26  1  0  0  0  0
 11 12  2  0  0  0  0
 11 27  1  0  0  0  0
 12 28  1  0  0  0  0
 13 14  1  0  0  0  0
 14 15  1  0  0  0  0
 14 29  1  0  0  0  0
 14 30  1  0  0  0  0
 15 31  1  0  0  0  0
 15 32  1  0  0  0  0
 15 33  1  0  0  0  0
M  END
> <PUBCHEM_COMPOUND_CID>
3034895

> <PUBCHEM_CONFORMER_RMSD>
0.6

> <PUBCHEM_CONFORMER_DIVERSEORDER>
1
15
65
45
47
51
43
56
30
84
34
54
19
73
23
57
6
46
72
33
86
44
87
89
78
24
18
22
59
37
55
48
77
53
31
88
71
11
35
60
61
10
27
41
32
14
8
20
7
64
82
70
52
40
2
50
9
85
58
63
3
79
29
13
5
76
39
12
28
17
62
42
80
83
69
38
16
81
74
21
25
49
4
68
75
67
26
66
36

> <PUBCHEM_MMFF94_PARTIAL_CHARGES>
10
1 -0.43
10 0.42
11 -0.29
12 -0.29
13 0.66
14 0.06
2 -0.57
27 0.15
28 0.15
6 0.14

> <PUBCHEM_EFFECTIVE_ROTOR_COUNT>
3.8

> <PUBCHEM_PHARMACOPHORE_FEATURES>
4
1 15 hydrophobe
1 2 acceptor
5 4 6 10 11 12 rings
7 3 4 5 6 7 8 9 rings

> <PUBCHEM_HEAVY_ATOM_COUNT>
15

> <PUBCHEM_ATOM_DEF_STEREO_COUNT>
0

> <PUBCHEM_ATOM_UDEF_STEREO_COUNT>
5

> <PUBCHEM_BOND_DEF_STEREO_COUNT>
0

> <PUBCHEM_BOND_UDEF_STEREO_COUNT>
0

> <PUBCHEM_ISOTOPIC_ATOM_COUNT>
0

> <PUBCHEM_COMPONENT_COUNT>
1

> <PUBCHEM_CACTVS_TAUTO_COUNT>
1

> <PUBCHEM_CONFORMER_ID>
002E4F0F00000001

> <PUBCHEM_MMFF94_ENERGY>
40.2706

> <PUBCHEM_FEATURE_SELFOVERLAP>
20.381

> <PUBCHEM_SHAPE_FINGERPRINT>
1 1 18411980256423991142
10465860 228 18341900636722919505
10608611 8 18263077734997314813
10980938 120 18408886217934156199
11067466 332 18186810153400905052
11471102 20 18411417267952630813
11769659 78 8285665094605674896
12251169 10 18114178648842803379
12346645 6 18411419471191881791
12491281 212 17975125749977630064
12654215 9 18336820875622427596
13380536 305 18411989074102236262
15775835 57 18411419556874910857
16945 1 18334563672929807366
18186145 218 18059586814049580521
20559304 39 18338517426269239457
20671657 1 18341898437626317479
21041028 32 18052255085694839442
21524375 3 18339355391505566422
21730867 7 18335704914348892619
22094290 62 18409442626662967690
22854114 111 18410572885903658497
23402539 116 17846208990652021260
23557571 272 17130984450442410882
25 1 18411984676008291334
2748010 2 18265335203750917518
276578 36 18409732876062789218
305870 269 18336535110194973170
3060560 45 18202286861809351599
4047638 21 17917715720489486840
449060 62 18335427859073001053
49207404 50 18261406588976278251
53812653 166 18411416237165812992
7364860 26 18342176605272384494
7832392 63 18342736351106051214
81228 2 17616529996396640842

> <PUBCHEM_SHAPE_MULTIPOLES>
296.95
6.21
2.12
0.94
8.35
0.52
-0.07
-2.86
1.13
-0.96
0.1
-0.37
-0.08
-0.02

> <PUBCHEM_SHAPE_SELFOVERLAP>
640.507

> <PUBCHEM_SHAPE_VOLUME>
170.2

> <PUBCHEM_COORDINATE_TYPE>
2
5
10

$$$$
