3034843
  -OEChem-11232109413D

 32 34  0     1  0  0  0  0  0999 V2000
    3.7633   -1.2790   -0.0058 O   0  0  0  0  0  0  0  0  0  0  0  0
   -2.1825   -0.3326    0.3977 C   0  0  0  0  0  0  0  0  0  0  0  0
   -2.0393    0.7975   -0.6675 C   0  0  2  0  0  0  0  0  0  0  0  0
   -1.0217   -1.0307   -0.3892 C   0  0  1  0  0  0  0  0  0  0  0  0
   -1.6589   -0.3573   -1.6460 C   0  0  0  0  0  0  0  0  0  0  0  0
   -0.8670    1.7618   -0.4157 C   0  0  0  0  0  0  0  0  0  0  0  0
    0.3206    1.0320    0.2572 C   0  0  1  0  0  0  0  0  0  0  0  0
    0.3214   -0.4415   -0.0853 C   0  0  0  0  0  0  0  0  0  0  0  0
   -1.7756    0.1075    1.8002 C   0  0  0  0  0  0  0  0  0  0  0  0
   -3.5151   -1.0368    0.5285 C   0  0  0  0  0  0  0  0  0  0  0  0
    1.6601    1.6785   -0.1025 C   0  0  0  0  0  0  0  0  0  0  0  0
    1.4237   -1.1908   -0.2061 C   0  0  0  0  0  0  0  0  0  0  0  0
    2.8193    0.8741    0.4736 C   0  0  0  0  0  0  0  0  0  0  0  0
    2.7518   -0.5824    0.0610 C   0  0  0  0  0  0  0  0  0  0  0  0
   -2.9602    1.3260   -0.9347 H   0  0  0  0  0  0  0  0  0  0  0  0
   -1.0462   -2.1253   -0.3843 H   0  0  0  0  0  0  0  0  0  0  0  0
   -0.9769   -0.0949   -2.4615 H   0  0  0  0  0  0  0  0  0  0  0  0
   -2.5047   -0.8980   -2.0857 H   0  0  0  0  0  0  0  0  0  0  0  0
   -1.1892    2.5985    0.2156 H   0  0  0  0  0  0  0  0  0  0  0  0
   -0.5623    2.2044   -1.3725 H   0  0  0  0  0  0  0  0  0  0  0  0
    0.2658    1.1570    1.3420 H   0  0  0  0  0  0  0  0  0  0  0  0
   -2.5370   -0.1937    2.5350 H   0  0  0  0  0  0  0  0  0  0  0  0
   -0.8747   -0.3852    2.1804 H   0  0  0  0  0  0  0  0  0  0  0  0
   -1.7351    1.1923    1.9354 H   0  0  0  0  0  0  0  0  0  0  0  0
   -3.4388   -1.9149    1.1801 H   0  0  0  0  0  0  0  0  0  0  0  0
   -4.2798   -0.3694    0.9424 H   0  0  0  0  0  0  0  0  0  0  0  0
   -3.8952   -1.3921   -0.4344 H   0  0  0  0  0  0  0  0  0  0  0  0
    1.6990    2.7079    0.2729 H   0  0  0  0  0  0  0  0  0  0  0  0
    1.7691    1.7320   -1.1942 H   0  0  0  0  0  0  0  0  0  0  0  0
    1.3934   -2.2372   -0.4865 H   0  0  0  0  0  0  0  0  0  0  0  0
    2.8192    0.9185    1.5683 H   0  0  0  0  0  0  0  0  0  0  0  0
    3.7635    1.2942    0.1104 H   0  0  0  0  0  0  0  0  0  0  0  0
  1 14  2  0  0  0  0
  2  3  1  0  0  0  0
  2  4  1  0  0  0  0
  2  9  1  0  0  0  0
  2 10  1  0  0  0  0
  3  5  1  0  0  0  0
  3  6  1  0  0  0  0
  3 15  1  0  0  0  0
  4  5  1  0  0  0  0
  4  8  1  0  0  0  0
  4 16  1  0  0  0  0
  5 17  1  0  0  0  0
  5 18  1  0  0  0  0
  6  7  1  0  0  0  0
  6 19  1  0  0  0  0
  6 20  1  0  0  0  0
  7  8  1  0  0  0  0
  7 11  1  0  0  0  0
  7 21  1  0  0  0  0
  8 12  2  0  0  0  0
  9 22  1  0  0  0  0
  9 23  1  0  0  0  0
  9 24  1  0  0  0  0
 10 25  1  0  0  0  0
 10 26  1  0  0  0  0
 10 27  1  0  0  0  0
 11 13  1  0  0  0  0
 11 28  1  0  0  0  0
 11 29  1  0  0  0  0
 12 14  1  0  0  0  0
 12 30  1  0  0  0  0
 13 14  1  0  0  0  0
 13 31  1  0  0  0  0
 13 32  1  0  0  0  0
M  END
> <PUBCHEM_COMPOUND_CID>
3034843

> <PUBCHEM_CONFORMER_RMSD>
0.4

> <PUBCHEM_CONFORMER_DIVERSEORDER>
1

> <PUBCHEM_MMFF94_PARTIAL_CHARGES>
8
1 -0.57
12 -0.14
13 0.06
14 0.49
30 0.15
4 0.12
7 0.14
8 -0.25

> <PUBCHEM_EFFECTIVE_ROTOR_COUNT>
1

> <PUBCHEM_PHARMACOPHORE_FEATURES>
4
1 1 acceptor
3 2 9 10 hydrophobe
6 7 8 11 12 13 14 rings
7 2 3 4 5 6 7 8 rings

> <PUBCHEM_HEAVY_ATOM_COUNT>
14

> <PUBCHEM_ATOM_DEF_STEREO_COUNT>
1

> <PUBCHEM_ATOM_UDEF_STEREO_COUNT>
2

> <PUBCHEM_BOND_DEF_STEREO_COUNT>
0

> <PUBCHEM_BOND_UDEF_STEREO_COUNT>
0

> <PUBCHEM_ISOTOPIC_ATOM_COUNT>
0

> <PUBCHEM_COMPONENT_COUNT>
1

> <PUBCHEM_CACTVS_TAUTO_COUNT>
8

> <PUBCHEM_CONFORMER_ID>
002E4EDB00000001

> <PUBCHEM_MMFF94_ENERGY>
52.2551

> <PUBCHEM_FEATURE_SELFOVERLAP>
20.309

> <PUBCHEM_SHAPE_FINGERPRINT>
11471102 22 18263091053163164880
11578080 2 17344029032182169345
11769659 78 18199465639959169519
12032990 46 18408044017496669507
12423570 1 14728846509653153901
12696612 119 18412553119219739412
12932764 1 17917988416859142428
13024252 1 17168430359320397503
13172582 1 18202002122762841134
13296908 3 18333728005469478026
13538477 17 17131552850904321287
13581323 91 16272211894363755503
15219456 202 18334288790511663701
15309172 13 18131351903724666982
15375462 478 17917720110336369179
15653759 3 17968095304798702178
15775835 57 18059295486470783264
16945 1 18268982270798328484
17844478 74 18260270758640803581
200 152 17988912384512724719
20201158 50 18259702293838728011
21061003 4 18334868198684610008
21501502 16 18334586732393162589
23463225 33 18411984697309080460
23557571 272 16732975470567222988
23559900 14 17095517405603037394
25 1 17683785636904342557
2748010 2 18338785741751336196
369184 2 18412539920642625567
5084963 1 18201992244306333738
528886 8 18340477967160183681
63268167 104 18271802466752712976
77492 1 17632016458981050269

> <PUBCHEM_SHAPE_MULTIPOLES>
282.24
4.95
1.62
1.16
1.87
0.39
0.09
-1.55
0.71
0.54
-0.14
-0.86
0
0.23

> <PUBCHEM_SHAPE_SELFOVERLAP>
610.332

> <PUBCHEM_SHAPE_VOLUME>
156.8

> <PUBCHEM_COORDINATE_TYPE>
2
5
10

$$$$
