3034278
  -OEChem-11232109243D

 49 51  0     1  0  0  0  0  0999 V2000
    3.0624   -0.8482    0.1841 O   0  0  0  0  0  0  0  0  0  0  0  0
    3.3012    1.4719   -0.0324 O   0  0  0  0  0  0  0  0  0  0  0  0
   -1.9613   -1.7650    0.1842 C   0  0  0  0  0  0  0  0  0  0  0  0
   -3.1848    0.9868   -0.3611 C   0  0  0  0  0  0  0  0  0  0  0  0
   -3.4730   -1.4581    0.2656 C   0  0  0  0  0  0  0  0  0  0  0  0
   -3.8817   -0.3516   -0.6921 C   0  0  0  0  0  0  0  0  0  0  0  0
   -1.1230   -0.4801    0.1742 C   0  0  0  0  0  0  0  0  0  0  0  0
   -1.6880    0.7927   -0.0864 C   0  0  0  0  0  0  0  0  0  0  0  0
   -1.6559   -2.5652   -1.1015 C   0  0  0  0  0  0  0  0  0  0  0  0
   -1.6311   -2.6595    1.4030 C   0  0  0  0  0  0  0  0  0  0  0  0
   -3.4329    1.9191   -1.5710 C   0  0  0  0  0  0  0  0  0  0  0  0
   -3.8381    1.6251    0.8849 C   0  0  0  0  0  0  0  0  0  0  0  0
    0.2700   -0.5668    0.3948 C   0  0  0  0  0  0  0  0  0  0  0  0
    1.0839    0.5644    0.4025 C   0  0  0  0  0  0  0  0  0  0  0  0
   -0.8430    1.9247   -0.0533 C   0  0  0  0  0  0  0  0  0  0  0  0
    2.5788    0.4279    0.6511 C   0  0  1  0  0  0  0  0  0  0  0  0
    0.5252    1.8129    0.1865 C   0  0  0  0  0  0  0  0  0  0  0  0
    3.7978   -0.5515   -1.0049 C   0  0  1  0  0  0  0  0  0  0  0  0
    2.8813    0.5249    2.1460 C   0  0  0  0  0  0  0  0  0  0  0  0
    4.3696    0.8108   -0.7102 C   0  0  0  0  0  0  0  0  0  0  0  0
    4.8425   -1.6154   -1.2639 C   0  0  0  0  0  0  0  0  0  0  0  0
   -3.7493   -1.1718    1.2883 H   0  0  0  0  0  0  0  0  0  0  0  0
   -4.0549   -2.3617    0.0420 H   0  0  0  0  0  0  0  0  0  0  0  0
   -3.6493   -0.6584   -1.7197 H   0  0  0  0  0  0  0  0  0  0  0  0
   -4.9720   -0.2289   -0.6575 H   0  0  0  0  0  0  0  0  0  0  0  0
   -0.6116   -2.8984   -1.1301 H   0  0  0  0  0  0  0  0  0  0  0  0
   -2.2841   -3.4608   -1.1683 H   0  0  0  0  0  0  0  0  0  0  0  0
   -1.8237   -1.9693   -2.0053 H   0  0  0  0  0  0  0  0  0  0  0  0
   -2.3133   -3.5165    1.4555 H   0  0  0  0  0  0  0  0  0  0  0  0
   -0.6166   -3.0693    1.3620 H   0  0  0  0  0  0  0  0  0  0  0  0
   -1.7243   -2.1002    2.3415 H   0  0  0  0  0  0  0  0  0  0  0  0
   -3.1110    2.9484   -1.3809 H   0  0  0  0  0  0  0  0  0  0  0  0
   -2.8983    1.5646   -2.4603 H   0  0  0  0  0  0  0  0  0  0  0  0
   -4.5003    1.9642   -1.8183 H   0  0  0  0  0  0  0  0  0  0  0  0
   -3.6568    1.0360    1.7905 H   0  0  0  0  0  0  0  0  0  0  0  0
   -3.4442    2.6305    1.0756 H   0  0  0  0  0  0  0  0  0  0  0  0
   -4.9225    1.7205    0.7577 H   0  0  0  0  0  0  0  0  0  0  0  0
    0.7214   -1.5404    0.5668 H   0  0  0  0  0  0  0  0  0  0  0  0
   -1.2464    2.9224   -0.2075 H   0  0  0  0  0  0  0  0  0  0  0  0
    1.1274    2.7167    0.2063 H   0  0  0  0  0  0  0  0  0  0  0  0
    3.0840   -0.5047   -1.8362 H   0  0  0  0  0  0  0  0  0  0  0  0
    3.9572    0.4200    2.3279 H   0  0  0  0  0  0  0  0  0  0  0  0
    2.5774    1.4945    2.5559 H   0  0  0  0  0  0  0  0  0  0  0  0
    2.3804   -0.2695    2.7106 H   0  0  0  0  0  0  0  0  0  0  0  0
    5.2263    0.7674   -0.0285 H   0  0  0  0  0  0  0  0  0  0  0  0
    4.6534    1.3650   -1.6087 H   0  0  0  0  0  0  0  0  0  0  0  0
    5.4376   -1.3790   -2.1508 H   0  0  0  0  0  0  0  0  0  0  0  0
    5.5154   -1.7248   -0.4064 H   0  0  0  0  0  0  0  0  0  0  0  0
    4.3642   -2.5896   -1.4109 H   0  0  0  0  0  0  0  0  0  0  0  0
  1 16  1  0  0  0  0
  1 18  1  0  0  0  0
  2 16  1  0  0  0  0
  2 20  1  0  0  0  0
  3  5  1  0  0  0  0
  3  7  1  0  0  0  0
  3  9  1  0  0  0  0
  3 10  1  0  0  0  0
  4  6  1  0  0  0  0
  4  8  1  0  0  0  0
  4 11  1  0  0  0  0
  4 12  1  0  0  0  0
  5  6  1  0  0  0  0
  5 22  1  0  0  0  0
  5 23  1  0  0  0  0
  6 24  1  0  0  0  0
  6 25  1  0  0  0  0
  7  8  2  0  0  0  0
  7 13  1  0  0  0  0
  8 15  1  0  0  0  0
  9 26  1  0  0  0  0
  9 27  1  0  0  0  0
  9 28  1  0  0  0  0
 10 29  1  0  0  0  0
 10 30  1  0  0  0  0
 10 31  1  0  0  0  0
 11 32  1  0  0  0  0
 11 33  1  0  0  0  0
 11 34  1  0  0  0  0
 12 35  1  0  0  0  0
 12 36  1  0  0  0  0
 12 37  1  0  0  0  0
 13 14  2  0  0  0  0
 13 38  1  0  0  0  0
 14 16  1  0  0  0  0
 14 17  1  0  0  0  0
 15 17  2  0  0  0  0
 15 39  1  0  0  0  0
 16 19  1  0  0  0  0
 17 40  1  0  0  0  0
 18 20  1  0  0  0  0
 18 21  1  0  0  0  0
 18 41  1  0  0  0  0
 19 42  1  0  0  0  0
 19 43  1  0  0  0  0
 19 44  1  0  0  0  0
 20 45  1  0  0  0  0
 20 46  1  0  0  0  0
 21 47  1  0  0  0  0
 21 48  1  0  0  0  0
 21 49  1  0  0  0  0
M  END
> <PUBCHEM_COMPOUND_CID>
3034278

> <PUBCHEM_CONFORMER_RMSD>
0.6

> <PUBCHEM_CONFORMER_DIVERSEORDER>
1
2
14
13
5
7
12
8
10
4
11
6
3
9

> <PUBCHEM_MMFF94_PARTIAL_CHARGES>
16
1 -0.56
13 -0.15
14 -0.14
15 -0.15
16 0.7
17 -0.15
18 0.28
2 -0.56
20 0.28
3 0.14
38 0.15
39 0.15
4 0.14
40 0.15
7 -0.14
8 -0.14

> <PUBCHEM_EFFECTIVE_ROTOR_COUNT>
2.8

> <PUBCHEM_PHARMACOPHORE_FEATURES>
7
1 1 acceptor
1 2 acceptor
3 3 9 10 hydrophobe
3 4 11 12 hydrophobe
5 1 2 16 18 20 rings
6 3 4 5 6 7 8 rings
6 7 8 13 14 15 17 rings

> <PUBCHEM_HEAVY_ATOM_COUNT>
21

> <PUBCHEM_ATOM_DEF_STEREO_COUNT>
0

> <PUBCHEM_ATOM_UDEF_STEREO_COUNT>
2

> <PUBCHEM_BOND_DEF_STEREO_COUNT>
0

> <PUBCHEM_BOND_UDEF_STEREO_COUNT>
0

> <PUBCHEM_ISOTOPIC_ATOM_COUNT>
0

> <PUBCHEM_COMPONENT_COUNT>
1

> <PUBCHEM_CACTVS_TAUTO_COUNT>
1

> <PUBCHEM_CONFORMER_ID>
002E4CA600000001

> <PUBCHEM_MMFF94_ENERGY>
69.8637

> <PUBCHEM_FEATURE_SELFOVERLAP>
35.582

> <PUBCHEM_SHAPE_FINGERPRINT>
10498660 4 18260824886773928476
10616163 171 18411985801284805494
107951 10 18041572346821342939
1100329 8 16757483240941722322
11458722 379 18337676317075309686
11552529 35 16915098666723191839
11578080 2 17201068455826656531
12011746 2 18335136497503496903
12173636 292 18040705966181157863
12186901 62 18333453127446600079
12236239 1 17458054955314128712
12403814 3 17240755173396941053
12553582 1 18261668276621872593
12592029 89 18115015291766955617
12714826 92 18337676437439636019
13135754 10 17534377623354060235
13140716 1 18336819913565941657
13224815 77 18113897199535702296
13296908 3 18272651285508072728
13538477 17 18041271110942066592
13544592 145 18202562843807401904
13583140 156 16127520656636714139
14289901 80 16987985227945568104
14790565 3 18193849141196756309
15163728 17 16952518084480066407
15196674 1 18412548708198467254
15309172 13 18262515893098054681
15415430 112 18261113001659048868
16752209 62 18262222392043941187
16945 1 18261944176815721305
17804303 29 18411420656808609809
18186145 218 18341044121201717649
19862831 5 17894634751377901220
19868273 293 18114455695497313181
200 152 16845570885763186844
20600515 1 18268405998199864080
20602899 9 16917345940031731103
20645476 183 17603590703126778123
20645477 70 17775570832113817942
20681677 155 18335989696593047568
20871999 31 18335143111025171380
21069387 34 16702014301091787365
21521239 73 17845069841303684941
221490 88 18339090409904535068
23493267 7 18259989257794238122
23557571 272 18338230565931404720
23559900 14 18342174449979205260
2748010 2 18195234736052406897
2838139 119 16517900989496387877
3759504 43 17676207949057978307
4921388 177 17894923965611840626
495365 180 17274805948944450648
5104073 3 18411700993613589672
5161694 15 18272650125819423798
559249 180 18262795160567271474
59755656 215 18341894044502066807
59755656 520 18129666288771452689
6049 1 18200874105442344696
633830 44 18271799073771117429
81228 2 18192137416534664259
9709674 26 18339923830659112206

> <PUBCHEM_SHAPE_MULTIPOLES>
420.43
8.72
2.61
1.38
6.37
0.98
-0.24
-0.09
2.39
-1.8
0.12
0.48
0.12
1.07

> <PUBCHEM_SHAPE_SELFOVERLAP>
892.073

> <PUBCHEM_SHAPE_VOLUME>
236.8

> <PUBCHEM_COORDINATE_TYPE>
2
5
10

$$$$
