303710
  -OEChem-11232109053D

 17 17  0     1  0  0  0  0  0999 V2000
    0.3629   -1.5327   -0.2849 S   0  0  0  0  0  0  0  0  0  0  0  0
   -2.1405    0.1217   -0.3589 S   0  0  0  0  0  0  0  0  0  0  0  0
    1.1199    0.0159    0.3264 C   0  0  2  0  0  0  0  0  0  0  0  0
    0.4075    1.2598   -0.2220 C   0  0  0  0  0  0  0  0  0  0  0  0
   -1.0346    1.4262    0.2526 C   0  0  0  0  0  0  0  0  0  0  0  0
    2.5932    0.0185   -0.0777 C   0  0  0  0  0  0  0  0  0  0  0  0
   -1.3084   -1.3095    0.3646 C   0  0  0  0  0  0  0  0  0  0  0  0
    1.0644    0.0094    1.4211 H   0  0  0  0  0  0  0  0  0  0  0  0
    0.4477    1.2762   -1.3196 H   0  0  0  0  0  0  0  0  0  0  0  0
    0.9627    2.1477    0.1092 H   0  0  0  0  0  0  0  0  0  0  0  0
   -1.0831    1.4521    1.3465 H   0  0  0  0  0  0  0  0  0  0  0  0
   -1.4246    2.3834   -0.1093 H   0  0  0  0  0  0  0  0  0  0  0  0
    3.1226   -0.8486    0.3330 H   0  0  0  0  0  0  0  0  0  0  0  0
    2.7181    0.0154   -1.1667 H   0  0  0  0  0  0  0  0  0  0  0  0
    3.0927    0.9143    0.3082 H   0  0  0  0  0  0  0  0  0  0  0  0
   -1.2858   -1.2267    1.4556 H   0  0  0  0  0  0  0  0  0  0  0  0
   -1.8907   -2.2016    0.1172 H   0  0  0  0  0  0  0  0  0  0  0  0
  1  3  1  0  0  0  0
  1  7  1  0  0  0  0
  2  5  1  0  0  0  0
  2  7  1  0  0  0  0
  3  4  1  0  0  0  0
  3  6  1  0  0  0  0
  3  8  1  0  0  0  0
  4  5  1  0  0  0  0
  4  9  1  0  0  0  0
  4 10  1  0  0  0  0
  5 11  1  0  0  0  0
  5 12  1  0  0  0  0
  6 13  1  0  0  0  0
  6 14  1  0  0  0  0
  6 15  1  0  0  0  0
  7 16  1  0  0  0  0
  7 17  1  0  0  0  0
M  END
> <PUBCHEM_COMPOUND_CID>
303710

> <PUBCHEM_CONFORMER_RMSD>
0.4

> <PUBCHEM_CONFORMER_DIVERSEORDER>
3
1
5
2
4
6

> <PUBCHEM_MMFF94_PARTIAL_CHARGES>
5
1 -0.46
2 -0.46
3 0.23
5 0.23
7 0.46

> <PUBCHEM_EFFECTIVE_ROTOR_COUNT>
1.2

> <PUBCHEM_PHARMACOPHORE_FEATURES>
1
6 1 2 3 4 5 7 rings

> <PUBCHEM_HEAVY_ATOM_COUNT>
7

> <PUBCHEM_ATOM_DEF_STEREO_COUNT>
0

> <PUBCHEM_ATOM_UDEF_STEREO_COUNT>
1

> <PUBCHEM_BOND_DEF_STEREO_COUNT>
0

> <PUBCHEM_BOND_UDEF_STEREO_COUNT>
0

> <PUBCHEM_ISOTOPIC_ATOM_COUNT>
0

> <PUBCHEM_COMPONENT_COUNT>
1

> <PUBCHEM_CACTVS_TAUTO_COUNT>
1

> <PUBCHEM_CONFORMER_ID>
0004A25E00000003

> <PUBCHEM_MMFF94_ENERGY>
7.8828

> <PUBCHEM_FEATURE_SELFOVERLAP>
5.074

> <PUBCHEM_SHAPE_FINGERPRINT>
15310529 11 16515678935855943173
16714656 1 18410857672205137334
18185500 45 18337105786472689547
21040471 1 18266177231983809632
23235685 24 18410007711125600733
23552423 10 18189341177844903854
29004967 10 18412548733815309754
5084963 1 18129665351492577715
66348 1 18410571786133515851

> <PUBCHEM_SHAPE_MULTIPOLES>
151.76
2.88
1.74
0.72
0.77
0.17
0.01
-0.1
0.15
-0.33
-0.02
-0.07
0.04
0.06

> <PUBCHEM_SHAPE_SELFOVERLAP>
258.898

> <PUBCHEM_SHAPE_VOLUME>
101.1

> <PUBCHEM_COORDINATE_TYPE>
2
5
10

$$$$
