3083805
  -OEChem-11232108543D

 24 24  0     0  0  0  0  0  0999 V2000
   -0.7624   -2.4412    0.4786 O   0  0  0  0  0  0  0  0  0  0  0  0
    0.6077    0.0589   -0.0766 C   0  0  0  0  0  0  0  0  0  0  0  0
   -0.8439   -0.1436   -0.1724 C   0  0  0  0  0  0  0  0  0  0  0  0
   -3.2032    0.7024   -0.6549 C   0  0  0  0  0  0  0  0  0  0  0  0
   -1.7082    0.8233   -0.5318 C   0  0  0  0  0  0  0  0  0  0  0  0
    1.1614    0.4750    1.1260 C   0  0  0  0  0  0  0  0  0  0  0  0
    1.4044   -0.1689   -1.1898 C   0  0  0  0  0  0  0  0  0  0  0  0
   -3.8939    1.0358    0.6584 C   0  0  0  0  0  0  0  0  0  0  0  0
    2.5399    0.6675    1.2172 C   0  0  0  0  0  0  0  0  0  0  0  0
    2.7829    0.0235   -1.0987 C   0  0  0  0  0  0  0  0  0  0  0  0
    3.3506    0.4417    0.1050 C   0  0  0  0  0  0  0  0  0  0  0  0
   -1.4352   -1.4744    0.1390 C   0  0  0  0  0  0  0  0  0  0  0  0
   -3.5303    1.4257   -1.4132 H   0  0  0  0  0  0  0  0  0  0  0  0
   -3.5299   -0.2667   -1.0418 H   0  0  0  0  0  0  0  0  0  0  0  0
   -1.3105    1.8136   -0.7521 H   0  0  0  0  0  0  0  0  0  0  0  0
    0.5412    0.6540    2.0006 H   0  0  0  0  0  0  0  0  0  0  0  0
    0.9751   -0.4956   -2.1334 H   0  0  0  0  0  0  0  0  0  0  0  0
   -3.6264    2.0402    1.0041 H   0  0  0  0  0  0  0  0  0  0  0  0
   -4.9807    1.0031    0.5308 H   0  0  0  0  0  0  0  0  0  0  0  0
   -3.6256    0.3225    1.4446 H   0  0  0  0  0  0  0  0  0  0  0  0
    2.9820    0.9929    2.1543 H   0  0  0  0  0  0  0  0  0  0  0  0
    3.4144   -0.1524   -1.9646 H   0  0  0  0  0  0  0  0  0  0  0  0
    4.4239    0.5914    0.1760 H   0  0  0  0  0  0  0  0  0  0  0  0
   -2.5255   -1.5806    0.0864 H   0  0  0  0  0  0  0  0  0  0  0  0
  1 12  2  0  0  0  0
  2  3  1  0  0  0  0
  2  6  2  0  0  0  0
  2  7  1  0  0  0  0
  3  5  2  3  0  0  0
  3 12  1  0  0  0  0
  4  5  1  0  0  0  0
  4  8  1  0  0  0  0
  4 13  1  0  0  0  0
  4 14  1  0  0  0  0
  5 15  1  0  0  0  0
  6  9  1  0  0  0  0
  6 16  1  0  0  0  0
  7 10  2  0  0  0  0
  7 17  1  0  0  0  0
  8 18  1  0  0  0  0
  8 19  1  0  0  0  0
  8 20  1  0  0  0  0
  9 11  2  0  0  0  0
  9 21  1  0  0  0  0
 10 11  1  0  0  0  0
 10 22  1  0  0  0  0
 11 23  1  0  0  0  0
 12 24  1  0  0  0  0
M  END
> <PUBCHEM_COMPOUND_CID>
3083805

> <PUBCHEM_CONFORMER_RMSD>
0.6

> <PUBCHEM_CONFORMER_DIVERSEORDER>
1
5
3
4
2

> <PUBCHEM_MMFF94_PARTIAL_CHARGES>
18
1 -0.57
10 -0.15
11 -0.15
12 0.5
15 0.15
16 0.15
17 0.15
2 0.03
21 0.15
22 0.15
23 0.15
24 0.06
3 -0.01
4 0.14
5 -0.29
6 -0.15
7 -0.15
9 -0.15

> <PUBCHEM_EFFECTIVE_ROTOR_COUNT>
3

> <PUBCHEM_PHARMACOPHORE_FEATURES>
3
1 1 acceptor
1 8 hydrophobe
6 2 6 7 9 10 11 rings

> <PUBCHEM_HEAVY_ATOM_COUNT>
12

> <PUBCHEM_ATOM_DEF_STEREO_COUNT>
0

> <PUBCHEM_ATOM_UDEF_STEREO_COUNT>
0

> <PUBCHEM_BOND_DEF_STEREO_COUNT>
0

> <PUBCHEM_BOND_UDEF_STEREO_COUNT>
1

> <PUBCHEM_ISOTOPIC_ATOM_COUNT>
0

> <PUBCHEM_COMPONENT_COUNT>
1

> <PUBCHEM_CACTVS_TAUTO_COUNT>
1

> <PUBCHEM_CONFORMER_ID>
002F0E1D00000001

> <PUBCHEM_MMFF94_ENERGY>
29.4753

> <PUBCHEM_FEATURE_SELFOVERLAP>
15.223

> <PUBCHEM_SHAPE_FINGERPRINT>
11031198 65 17417815062419082764
12138202 97 18271237317638931750
124424 183 18060136535967875790
12716758 59 18410011048262520154
12932764 1 17240473745532813436
13538477 17 17386007324988326043
13581323 91 18113613499633991881
14648413 74 18057880445091978840
15219456 202 17917711356902817416
15279308 16 17845080938845179376
15309172 13 18187366506674806697
15375462 478 16225762987167797941
15775835 57 18186515497185367665
16945 1 18259976080892485612
18186145 218 18130224865714748877
200 152 13614521844188835244
20201158 50 17704075083863876884
20645464 45 18271519879263246187
20645477 56 18334013917232158908
20645477 70 16343708685789706949
20653085 51 17275102842896088185
21930827 45 18411418448863077723
23402539 116 18341317925277186629
23402655 69 16558469695274346569
23557571 272 18195819685234506604
23559900 14 18341897399119360030
25 1 17988647341743271669
276578 36 18334577889129048051
305870 269 18192424169841721025
63268167 104 15697999677951975968
6333449 129 18341890835623523679
77492 1 17168137983389713430
8030462 33 12967137137485678564
81228 2 18119804974554843115
88987 49 18262798591881657030

> <PUBCHEM_SHAPE_MULTIPOLES>
241.09
5.79
1.43
1.18
2.11
0.94
-0.02
-2.36
-0.08
0.81
0.43
-0.49
-0.07
0.46

> <PUBCHEM_SHAPE_SELFOVERLAP>
493.507

> <PUBCHEM_SHAPE_VOLUME>
139

> <PUBCHEM_COORDINATE_TYPE>
2
5
10

$$$$
