3084764
  -OEChem-11232109413D

 29 29  0     1  0  0  0  0  0999 V2000
   -0.2312    0.9844    0.7302 O   0  0  0  0  0  0  0  0  0  0  0  0
    1.3756    2.1829   -0.3786 O   0  0  0  0  0  0  0  0  0  0  0  0
    3.6481    0.6286   -0.0186 O   0  0  0  0  0  0  0  0  0  0  0  0
   -0.5191   -0.4028    0.9587 C   0  0  2  0  0  0  0  0  0  0  0  0
    0.7954   -1.1120    0.7068 C   0  0  0  0  0  0  0  0  0  0  0  0
    1.4588   -0.2465   -0.3434 C   0  0  1  0  0  0  0  0  0  0  0  0
   -1.6374   -0.8423    0.0246 C   0  0  0  0  0  0  0  0  0  0  0  0
   -2.9311   -0.0715    0.2928 C   0  0  0  0  0  0  0  0  0  0  0  0
    0.9076    1.1137   -0.0184 C   0  0  0  0  0  0  0  0  0  0  0  0
    2.9464   -0.3455   -0.2866 C   0  0  0  0  0  0  0  0  0  0  0  0
   -4.0414   -0.4912   -0.6702 C   0  0  0  0  0  0  0  0  0  0  0  0
   -5.3178    0.2981   -0.4266 C   0  0  0  0  0  0  0  0  0  0  0  0
    3.5460   -1.6960   -0.5706 C   0  0  0  0  0  0  0  0  0  0  0  0
   -0.8261   -0.5295    2.0029 H   0  0  0  0  0  0  0  0  0  0  0  0
    0.6726   -2.1540    0.3948 H   0  0  0  0  0  0  0  0  0  0  0  0
    1.3912   -1.1157    1.6292 H   0  0  0  0  0  0  0  0  0  0  0  0
    1.1187   -0.5068   -1.3520 H   0  0  0  0  0  0  0  0  0  0  0  0
   -1.8186   -1.9170    0.1453 H   0  0  0  0  0  0  0  0  0  0  0  0
   -1.3463   -0.6754   -1.0199 H   0  0  0  0  0  0  0  0  0  0  0  0
   -3.2551   -0.2452    1.3262 H   0  0  0  0  0  0  0  0  0  0  0  0
   -2.7550    1.0057    0.1874 H   0  0  0  0  0  0  0  0  0  0  0  0
   -4.2505   -1.5608   -0.5535 H   0  0  0  0  0  0  0  0  0  0  0  0
   -3.7163   -0.3350   -1.7054 H   0  0  0  0  0  0  0  0  0  0  0  0
   -5.1498    1.3703   -0.5699 H   0  0  0  0  0  0  0  0  0  0  0  0
   -5.6878    0.1410    0.5916 H   0  0  0  0  0  0  0  0  0  0  0  0
   -6.0988   -0.0194   -1.1246 H   0  0  0  0  0  0  0  0  0  0  0  0
    3.3295   -2.3818    0.2515 H   0  0  0  0  0  0  0  0  0  0  0  0
    3.1436   -2.0898   -1.5074 H   0  0  0  0  0  0  0  0  0  0  0  0
    4.6305   -1.5992   -0.6746 H   0  0  0  0  0  0  0  0  0  0  0  0
  1  4  1  0  0  0  0
  1  9  1  0  0  0  0
  2  9  2  0  0  0  0
  3 10  2  0  0  0  0
  4  5  1  0  0  0  0
  4  7  1  0  0  0  0
  4 14  1  0  0  0  0
  5  6  1  0  0  0  0
  5 15  1  0  0  0  0
  5 16  1  0  0  0  0
  6  9  1  0  0  0  0
  6 10  1  0  0  0  0
  6 17  1  0  0  0  0
  7  8  1  0  0  0  0
  7 18  1  0  0  0  0
  7 19  1  0  0  0  0
  8 11  1  0  0  0  0
  8 20  1  0  0  0  0
  8 21  1  0  0  0  0
 10 13  1  0  0  0  0
 11 12  1  0  0  0  0
 11 22  1  0  0  0  0
 11 23  1  0  0  0  0
 12 24  1  0  0  0  0
 12 25  1  0  0  0  0
 12 26  1  0  0  0  0
 13 27  1  0  0  0  0
 13 28  1  0  0  0  0
 13 29  1  0  0  0  0
M  END
> <PUBCHEM_COMPOUND_CID>
3084764

> <PUBCHEM_CONFORMER_RMSD>
0.6

> <PUBCHEM_CONFORMER_DIVERSEORDER>
1
30
79
88
22
87
56
101
20
90
3
76
64
96
46
78
48
80
24
81
94
54
7
84
11
89
31
103
33
99
59
73
93
55
57
9
71
15
72
77
40
82
42
47
2
85
58
60
86
91
44
95
10
18
13
49
28
12
66
97
23
27
100
65
16
62
67
102
5
19
32
98
38
70
8
92
68
37
34
39
4
35
6
75
51
43
52
25
21
36
53
14
45
26
74
41
17
69
29
83
63
61
50

> <PUBCHEM_MMFF94_PARTIAL_CHARGES>
8
1 -0.43
10 0.45
13 0.06
2 -0.57
3 -0.57
4 0.28
6 0.12
9 0.66

> <PUBCHEM_EFFECTIVE_ROTOR_COUNT>
4.8

> <PUBCHEM_PHARMACOPHORE_FEATURES>
5
1 12 hydrophobe
1 2 acceptor
1 3 acceptor
1 6 anion
5 1 4 5 6 9 rings

> <PUBCHEM_HEAVY_ATOM_COUNT>
13

> <PUBCHEM_ATOM_DEF_STEREO_COUNT>
2

> <PUBCHEM_ATOM_UDEF_STEREO_COUNT>
0

> <PUBCHEM_BOND_DEF_STEREO_COUNT>
0

> <PUBCHEM_BOND_UDEF_STEREO_COUNT>
0

> <PUBCHEM_ISOTOPIC_ATOM_COUNT>
0

> <PUBCHEM_COMPONENT_COUNT>
1

> <PUBCHEM_CACTVS_TAUTO_COUNT>
5

> <PUBCHEM_CONFORMER_ID>
002F11DC00000001

> <PUBCHEM_MMFF94_ENERGY>
10.5257

> <PUBCHEM_FEATURE_SELFOVERLAP>
25.376

> <PUBCHEM_SHAPE_FINGERPRINT>
10219947 1 18273219694291321134
11062470 55 18059858380415387530
11401426 45 18411132554412388458
11471102 20 18408322189711938951
13549 16 18409448059817800111
13571099 22 18412549811963052618
13690532 89 18272089370631558111
14251717 144 18413108359638422566
14911166 2 18333455334806718846
14943859 89 15574713612182464321
14993402 34 18272939331732200342
15477762 27 18341896315658953966
15848700 24 18411419475681924102
16945 1 18267323060944977336
18186145 218 18186793704219350135
201361 129 10953724591317689630
20233049 118 17603297150607176677
20606313 2 18408041840090564924
20645477 70 18342178838655592999
20671657 53 18342179938129881573
21119208 17 18343018891835992479
22485316 2 17704347784270101919
231179 274 17676478433181626015
23402539 116 18272087132705378222
23402655 69 18410570678649223101
23557571 272 14189311334871063251
23559900 14 18410857690007602802
25 1 17967530168849611987
2748010 2 17974022926597701114
276578 36 15140670393438199545
3060560 45 18408035208761722095
4047638 21 16950285113233326070
4463277 69 17345762858707601702
4990 188 18260829310927729807
93112 12 18409728504250396543

> <PUBCHEM_SHAPE_MULTIPOLES>
249.93
8.15
1.5
0.85
8.64
0.44
-0.07
-1.11
2.46
-1.28
0.13
0.12
-0.1
0.11

> <PUBCHEM_SHAPE_SELFOVERLAP>
495.609

> <PUBCHEM_SHAPE_VOLUME>
150.3

> <PUBCHEM_COORDINATE_TYPE>
2
5
10

$$$$
