3085812
  -OEChem-11232109023D

 41 41  0     1  0  0  0  0  0999 V2000
   -2.8027    1.0918    0.2948 O   0  0  0  0  0  0  0  0  0  0  0  0
   -4.8274    1.7782   -0.5808 O   0  0  0  0  0  0  0  0  0  0  0  0
   -1.8539   -1.1003    0.2564 C   0  0  2  0  0  0  0  0  0  0  0  0
   -0.5570   -0.5849   -0.3935 C   0  0  0  0  0  0  0  0  0  0  0  0
   -2.0909   -2.5675   -0.1155 C   0  0  0  0  0  0  0  0  0  0  0  0
    0.5987   -1.5491   -0.2815 C   0  0  0  0  0  0  0  0  0  0  0  0
   -0.9228   -3.4445    0.3388 C   0  0  0  0  0  0  0  0  0  0  0  0
   -3.0433   -0.2314   -0.1463 C   0  0  0  0  0  0  0  0  0  0  0  0
    0.4201   -2.8354    0.0653 C   0  0  0  0  0  0  0  0  0  0  0  0
    1.9576   -0.9908   -0.5847 C   0  0  0  0  0  0  0  0  0  0  0  0
    2.6069   -0.3905    0.6586 C   0  0  0  0  0  0  0  0  0  0  0  0
    4.0092    0.0642    0.3648 C   0  0  0  0  0  0  0  0  0  0  0  0
    4.4168    1.2945    0.0002 C   0  0  0  0  0  0  0  0  0  0  0  0
   -3.7817    2.0077    0.0116 C   0  0  0  0  0  0  0  0  0  0  0  0
    5.8403    1.6847   -0.2801 C   0  0  0  0  0  0  0  0  0  0  0  0
    3.4231    2.4163   -0.1438 C   0  0  0  0  0  0  0  0  0  0  0  0
   -3.3929    3.3569    0.5358 C   0  0  0  0  0  0  0  0  0  0  0  0
   -1.7313   -1.0286    1.3468 H   0  0  0  0  0  0  0  0  0  0  0  0
   -0.2819    0.3665    0.0783 H   0  0  0  0  0  0  0  0  0  0  0  0
   -0.7247   -0.3768   -1.4583 H   0  0  0  0  0  0  0  0  0  0  0  0
   -2.2142   -2.6586   -1.2028 H   0  0  0  0  0  0  0  0  0  0  0  0
   -3.0179   -2.9358    0.3397 H   0  0  0  0  0  0  0  0  0  0  0  0
   -0.9904   -4.4157   -0.1647 H   0  0  0  0  0  0  0  0  0  0  0  0
   -1.0013   -3.6359    1.4157 H   0  0  0  0  0  0  0  0  0  0  0  0
   -3.9576   -0.6105    0.3260 H   0  0  0  0  0  0  0  0  0  0  0  0
   -3.1781   -0.2420   -1.2348 H   0  0  0  0  0  0  0  0  0  0  0  0
    1.2801   -3.4939    0.1551 H   0  0  0  0  0  0  0  0  0  0  0  0
    2.6002   -1.7859   -0.9875 H   0  0  0  0  0  0  0  0  0  0  0  0
    1.8805   -0.2423   -1.3837 H   0  0  0  0  0  0  0  0  0  0  0  0
    1.9974    0.4189    1.0742 H   0  0  0  0  0  0  0  0  0  0  0  0
    2.6632   -1.1443    1.4552 H   0  0  0  0  0  0  0  0  0  0  0  0
    4.7666   -0.7142    0.4474 H   0  0  0  0  0  0  0  0  0  0  0  0
    5.9451    2.0338   -1.3123 H   0  0  0  0  0  0  0  0  0  0  0  0
    6.5241    0.8410   -0.1411 H   0  0  0  0  0  0  0  0  0  0  0  0
    6.1561    2.4862    0.3953 H   0  0  0  0  0  0  0  0  0  0  0  0
    3.5499    3.1354    0.6722 H   0  0  0  0  0  0  0  0  0  0  0  0
    3.5926    2.9432   -1.0898 H   0  0  0  0  0  0  0  0  0  0  0  0
    2.3785    2.0978   -0.1573 H   0  0  0  0  0  0  0  0  0  0  0  0
   -2.4643    3.6844    0.0617 H   0  0  0  0  0  0  0  0  0  0  0  0
   -3.2763    3.3124    1.6215 H   0  0  0  0  0  0  0  0  0  0  0  0
   -4.1792    4.0791    0.2983 H   0  0  0  0  0  0  0  0  0  0  0  0
  1  8  1  0  0  0  0
  1 14  1  0  0  0  0
  2 14  2  0  0  0  0
  3  4  1  0  0  0  0
  3  5  1  0  0  0  0
  3  8  1  0  0  0  0
  3 18  1  0  0  0  0
  4  6  1  0  0  0  0
  4 19  1  0  0  0  0
  4 20  1  0  0  0  0
  5  7  1  0  0  0  0
  5 21  1  0  0  0  0
  5 22  1  0  0  0  0
  6  9  2  0  0  0  0
  6 10  1  0  0  0  0
  7  9  1  0  0  0  0
  7 23  1  0  0  0  0
  7 24  1  0  0  0  0
  8 25  1  0  0  0  0
  8 26  1  0  0  0  0
  9 27  1  0  0  0  0
 10 11  1  0  0  0  0
 10 28  1  0  0  0  0
 10 29  1  0  0  0  0
 11 12  1  0  0  0  0
 11 30  1  0  0  0  0
 11 31  1  0  0  0  0
 12 13  2  0  0  0  0
 12 32  1  0  0  0  0
 13 15  1  0  0  0  0
 13 16  1  0  0  0  0
 14 17  1  0  0  0  0
 15 33  1  0  0  0  0
 15 34  1  0  0  0  0
 15 35  1  0  0  0  0
 16 36  1  0  0  0  0
 16 37  1  0  0  0  0
 16 38  1  0  0  0  0
 17 39  1  0  0  0  0
 17 40  1  0  0  0  0
 17 41  1  0  0  0  0
M  END
> <PUBCHEM_COMPOUND_CID>
3085812

> <PUBCHEM_CONFORMER_RMSD>
0.8

> <PUBCHEM_CONFORMER_DIVERSEORDER>
1
207
231
88
177
168
96
155
80
221
204
35
139
110
17
232
223
84
198
266
210
156
79
143
247
189
61
144
220
119
66
197
154
101
4
167
203
267
48
74
227
176
242
166
41
122
42
208
218
125
97
77
59
63
104
87
182
109
258
209
257
260
83
50
117
127
214
28
15
82
72
51
212
250
138
62
11
12
244
129
71
18
248
193
99
33
36
136
25
252
180
2
259
217
24
76
102
39
105
184
85
268
26
118
251
265
201
192
241
69
150
179
137
215
43
13
148
173
47
169
219
58
95
222
230
140
45
3
32
171
34
46
114
23
186
19
75
190
158
142
56
44
92
191
123
53
54
200
29
38
126
14
185
121
91
108
93
7
132
68
81
213
181
178
202
6
89
49
16
9
86
196
27
152
187
145
163
60
111
21
174
240
141
20
128
37
64
130
225
159
115
149
107
100
195
133
235
262
98
31
246
55
78
183
226
199
263
175
131
206
194
245
164
8
30
234
211
228
162
238
256
151
188
160
73
216
172
70
255
249
243
120
165
106
10
146
153
147
112
124
135
157
116
264
22
170
254
237
57
113
103
40
67
65
5
94
233
261
52
253
134
161
236
90
229
205
239
224

> <PUBCHEM_MMFF94_PARTIAL_CHARGES>
17
1 -0.43
10 0.14
11 0.14
12 -0.29
13 -0.28
14 0.66
15 0.14
16 0.14
17 0.06
2 -0.57
27 0.15
32 0.15
4 0.14
6 -0.28
7 0.14
8 0.28
9 -0.29

> <PUBCHEM_EFFECTIVE_ROTOR_COUNT>
6.8

> <PUBCHEM_PHARMACOPHORE_FEATURES>
3
1 2 acceptor
3 13 15 16 hydrophobe
6 3 4 5 6 7 9 rings

> <PUBCHEM_HEAVY_ATOM_COUNT>
17

> <PUBCHEM_ATOM_DEF_STEREO_COUNT>
1

> <PUBCHEM_ATOM_UDEF_STEREO_COUNT>
0

> <PUBCHEM_BOND_DEF_STEREO_COUNT>
0

> <PUBCHEM_BOND_UDEF_STEREO_COUNT>
0

> <PUBCHEM_ISOTOPIC_ATOM_COUNT>
0

> <PUBCHEM_COMPONENT_COUNT>
1

> <PUBCHEM_CACTVS_TAUTO_COUNT>
1

> <PUBCHEM_CONFORMER_ID>
002F15F400000001

> <PUBCHEM_MMFF94_ENERGY>
14.9286

> <PUBCHEM_FEATURE_SELFOVERLAP>
15.223

> <PUBCHEM_SHAPE_FINGERPRINT>
10411042 1 17545884188184780746
10615611 76 17315092166866596012
12107183 9 18262787464275911082
12173636 292 18267579289988260870
122479 349 18411698798732592582
12390115 104 18341066162936632649
12769317 202 18196076747332523485
12788726 201 18191855941242378139
138480 1 17402049998454015651
13965767 371 17896316930869241716
14123255 352 18408885122443494476
14123255 52 18410575041855941235
14251764 75 18056207869184994833
14508225 48 17551501571969472471
14767858 380 18270099302510159733
14848178 96 18268426828579869145
15422964 175 9006471876481643955
1741750 31 18410293609702530314
17834072 32 18410857646377558160
20510252 161 18341056336162859555
20621476 13 17615115595168358541
20645477 56 18341905137527327506
22182937 141 18411422846793492392
23558518 356 18188495786584547282
23559900 14 18201159841744648102
23590187 32 18411138030411281752
27216 239 18261679259001168971
394222 165 18192144893872962179
474 4 18266735792765452137
59124914 9 18194968435379464104
6327066 14 18335134284910109093
633830 44 18198619943391436975
7808743 9 18410574015511855448
8199 26 18411981330033699337
84936 182 18055066567297698203
9981440 41 18408882923715762179

> <PUBCHEM_SHAPE_MULTIPOLES>
338.11
10.27
4.27
0.73
8.55
0.04
-0.01
-11.3
0.42
-3.86
-0.37
0.04
-0.01
-0.27

> <PUBCHEM_SHAPE_SELFOVERLAP>
661.272

> <PUBCHEM_SHAPE_VOLUME>
202.2

> <PUBCHEM_COORDINATE_TYPE>
2
5
10

$$$$
