3085846
  -OEChem-11232109463D

 40 40  0     0  0  0  0  0  0999 V2000
   -2.5885    1.3893   -0.1347 O   0  0  0  0  0  0  0  0  0  0  0  0
   -2.8804   -0.9584   -0.2428 O   0  0  0  0  0  0  0  0  0  0  0  0
    3.3589   -0.3651   -0.5019 O   0  0  0  0  0  0  0  0  0  0  0  0
    2.3662   -0.3214    2.0934 O   0  0  0  0  0  0  0  0  0  0  0  0
   -2.1904    0.1193    0.4003 C   0  0  0  0  0  0  0  0  0  0  0  0
   -0.7025   -0.0107    0.1619 C   0  0  0  0  0  0  0  0  0  0  0  0
    0.1504   -0.1065    1.2480 C   0  0  0  0  0  0  0  0  0  0  0  0
   -0.2251   -0.0305   -1.1375 C   0  0  0  0  0  0  0  0  0  0  0  0
    1.5228   -0.2258    1.0281 C   0  0  0  0  0  0  0  0  0  0  0  0
    2.0210   -0.2476   -0.2746 C   0  0  0  0  0  0  0  0  0  0  0  0
    1.1470   -0.1498   -1.3574 C   0  0  0  0  0  0  0  0  0  0  0  0
   -3.9798    1.6317    0.0297 C   0  0  0  0  0  0  0  0  0  0  0  0
   -2.4780   -2.2352    0.2366 C   0  0  0  0  0  0  0  0  0  0  0  0
    3.8719    0.2466   -1.6839 C   0  0  0  0  0  0  0  0  0  0  0  0
   -4.3173    2.9853   -0.5581 C   0  0  0  0  0  0  0  0  0  0  0  0
   -3.2571   -3.3055   -0.4978 C   0  0  0  0  0  0  0  0  0  0  0  0
    5.2986    0.6861   -1.4324 C   0  0  0  0  0  0  0  0  0  0  0  0
    2.8823    0.8982    2.6231 C   0  0  0  0  0  0  0  0  0  0  0  0
   -2.4237    0.1060    1.4731 H   0  0  0  0  0  0  0  0  0  0  0  0
   -0.2335   -0.0913    2.2644 H   0  0  0  0  0  0  0  0  0  0  0  0
   -0.8977    0.0384   -1.9876 H   0  0  0  0  0  0  0  0  0  0  0  0
    1.4880   -0.1934   -2.3875 H   0  0  0  0  0  0  0  0  0  0  0  0
   -4.2335    1.6168    1.0954 H   0  0  0  0  0  0  0  0  0  0  0  0
   -4.5632    0.8615   -0.4860 H   0  0  0  0  0  0  0  0  0  0  0  0
   -1.4138   -2.4193    0.0627 H   0  0  0  0  0  0  0  0  0  0  0  0
   -2.6801   -2.3040    1.3114 H   0  0  0  0  0  0  0  0  0  0  0  0
    3.3014    1.1410   -1.9644 H   0  0  0  0  0  0  0  0  0  0  0  0
    3.8458   -0.4785   -2.5048 H   0  0  0  0  0  0  0  0  0  0  0  0
   -4.0585    3.0192   -1.6216 H   0  0  0  0  0  0  0  0  0  0  0  0
   -3.7400    3.7745   -0.0651 H   0  0  0  0  0  0  0  0  0  0  0  0
   -5.3826    3.2056   -0.4468 H   0  0  0  0  0  0  0  0  0  0  0  0
   -3.0717   -3.2460   -1.5754 H   0  0  0  0  0  0  0  0  0  0  0  0
   -4.3336   -3.1672   -0.3520 H   0  0  0  0  0  0  0  0  0  0  0  0
   -2.9792   -4.3031   -0.1463 H   0  0  0  0  0  0  0  0  0  0  0  0
    5.7281    1.1519   -2.3237 H   0  0  0  0  0  0  0  0  0  0  0  0
    5.3414    1.4011   -0.6039 H   0  0  0  0  0  0  0  0  0  0  0  0
    5.9204   -0.1688   -1.1465 H   0  0  0  0  0  0  0  0  0  0  0  0
    2.0683    1.5320    2.9891 H   0  0  0  0  0  0  0  0  0  0  0  0
    3.4630    1.4326    1.8646 H   0  0  0  0  0  0  0  0  0  0  0  0
    3.5411    0.6560    3.4614 H   0  0  0  0  0  0  0  0  0  0  0  0
  1  5  1  0  0  0  0
  1 12  1  0  0  0  0
  2  5  1  0  0  0  0
  2 13  1  0  0  0  0
  3 10  1  0  0  0  0
  3 14  1  0  0  0  0
  4  9  1  0  0  0  0
  4 18  1  0  0  0  0
  5  6  1  0  0  0  0
  5 19  1  0  0  0  0
  6  7  2  0  0  0  0
  6  8  1  0  0  0  0
  7  9  1  0  0  0  0
  7 20  1  0  0  0  0
  8 11  2  0  0  0  0
  8 21  1  0  0  0  0
  9 10  2  0  0  0  0
 10 11  1  0  0  0  0
 11 22  1  0  0  0  0
 12 15  1  0  0  0  0
 12 23  1  0  0  0  0
 12 24  1  0  0  0  0
 13 16  1  0  0  0  0
 13 25  1  0  0  0  0
 13 26  1  0  0  0  0
 14 17  1  0  0  0  0
 14 27  1  0  0  0  0
 14 28  1  0  0  0  0
 15 29  1  0  0  0  0
 15 30  1  0  0  0  0
 15 31  1  0  0  0  0
 16 32  1  0  0  0  0
 16 33  1  0  0  0  0
 16 34  1  0  0  0  0
 17 35  1  0  0  0  0
 17 36  1  0  0  0  0
 17 37  1  0  0  0  0
 18 38  1  0  0  0  0
 18 39  1  0  0  0  0
 18 40  1  0  0  0  0
M  END
> <PUBCHEM_COMPOUND_CID>
3085846

> <PUBCHEM_CONFORMER_RMSD>
0.8

> <PUBCHEM_CONFORMER_DIVERSEORDER>
2
37
21
23
51
19
35
20
31
39
48
15
28
9
46
33
32
5
27
38
49
53
12
17
29
16
18
25
43
7
30
40
36
42
50
11
34
41
26
13
14
52
47
4
6
8
10
44
3
45
1
24
22

> <PUBCHEM_MMFF94_PARTIAL_CHARGES>
18
1 -0.56
10 0.08
11 -0.15
12 0.28
13 0.28
14 0.28
18 0.28
2 -0.56
20 0.15
21 0.15
22 0.15
3 -0.36
4 -0.36
5 0.7
6 -0.14
7 -0.15
8 -0.15
9 0.08

> <PUBCHEM_EFFECTIVE_ROTOR_COUNT>
8

> <PUBCHEM_PHARMACOPHORE_FEATURES>
5
1 1 acceptor
1 2 acceptor
1 3 acceptor
1 4 acceptor
6 6 7 8 9 10 11 rings

> <PUBCHEM_HEAVY_ATOM_COUNT>
18

> <PUBCHEM_ATOM_DEF_STEREO_COUNT>
0

> <PUBCHEM_ATOM_UDEF_STEREO_COUNT>
0

> <PUBCHEM_BOND_DEF_STEREO_COUNT>
0

> <PUBCHEM_BOND_UDEF_STEREO_COUNT>
0

> <PUBCHEM_ISOTOPIC_ATOM_COUNT>
0

> <PUBCHEM_COMPONENT_COUNT>
1

> <PUBCHEM_CACTVS_TAUTO_COUNT>
1

> <PUBCHEM_CONFORMER_ID>
002F161600000002

> <PUBCHEM_MMFF94_ENERGY>
56.6408

> <PUBCHEM_FEATURE_SELFOVERLAP>
25.415

> <PUBCHEM_SHAPE_FINGERPRINT>
10366900 7 17632298926005756493
10382601 240 16009037137994563120
11543360 7 18267037205207191510
11796584 16 18270968938804022894
12236239 1 17675927590783184039
12500047 106 18341329998714975143
12553582 1 18119246414253567059
12788726 201 18114744949340675667
13583140 156 17988632004589429778
13760787 19 18409455765031580694
13760787 5 15554457301232832012
14178342 30 18263342789950205771
14252887 29 13479427019384791540
14911166 2 16343422813162058676
15209294 21 17530973462118598452
15669948 3 18260547827323946899
15806764 133 17846503676763544464
15842332 3 17749656441952272851
16752209 62 18409442614116208615
18186145 218 17488735680309540241
20645477 56 18339373989199176949
20645477 70 16343695543353063900
20693207 138 17703236250897105966
20715346 28 17632288025257310099
20871999 31 18412267254923531047
21029758 27 16414656937742059856
21041028 32 15410077156466542890
21426921 1 18337400430209559223
21618674 53 17894644638023520513
22112679 90 17749374971344115737
22182313 1 17560793394247661520
22943178 12 17774998033193822667
23175994 123 16557928778666164326
23402539 116 17822018639998523846
23493267 7 18272094867989029035
23526113 38 17273708563019830038
23557571 272 18129931386230684185
23558518 356 17171548758643221932
23559900 14 18200879479047915878
23598291 2 17821719524979692195
25147074 1 17676195879630196930
2748010 2 17346308349460318808
34934 24 17603592889349775013
474 4 16733564808857817628
6049 1 17774442796975161403
633830 44 17416671459353664281
7615 1 17604413180721189099
77492 1 17603859014081532643
81228 2 18340766057262457491
88987 49 18410002235089660819

> <PUBCHEM_SHAPE_MULTIPOLES>
346.95
8.81
2.45
1.89
3.06
0.75
-1.06
-3.29
3.1
-5.78
0.49
2.93
-0.39
0.3

> <PUBCHEM_SHAPE_SELFOVERLAP>
691.87

> <PUBCHEM_SHAPE_VOLUME>
206.5

> <PUBCHEM_COORDINATE_TYPE>
2
5
10

$$$$
