3086443
  -OEChem-11232109273D

 26 26  0     0  0  0  0  0  0999 V2000
    0.8406    0.7093   -0.6109 O   0  0  0  0  0  0  0  0  0  0  0  0
    4.1023   -0.6431    0.2664 O   0  0  0  0  0  0  0  0  0  0  0  0
   -0.4571    0.4011   -0.3401 C   0  0  0  0  0  0  0  0  0  0  0  0
    1.8153   -0.3001   -0.3526 C   0  0  0  0  0  0  0  0  0  0  0  0
   -3.1175   -0.2294    0.2149 C   0  0  0  0  0  0  0  0  0  0  0  0
    3.1358    0.3630   -0.0111 C   0  0  0  0  0  0  0  0  0  0  0  0
   -1.3469    1.4051    0.0421 C   0  0  0  0  0  0  0  0  0  0  0  0
   -0.8976   -0.9184   -0.4448 C   0  0  0  0  0  0  0  0  0  0  0  0
   -2.6770    1.0899    0.3197 C   0  0  0  0  0  0  0  0  0  0  0  0
   -2.2279   -1.2335   -0.1673 C   0  0  0  0  0  0  0  0  0  0  0  0
   -4.5394   -0.5663    0.5114 C   0  0  0  0  0  0  0  0  0  0  0  0
    5.3693   -0.0776    0.5722 C   0  0  0  0  0  0  0  0  0  0  0  0
    1.5337   -0.9404    0.4941 H   0  0  0  0  0  0  0  0  0  0  0  0
    1.9336   -0.9344   -1.2393 H   0  0  0  0  0  0  0  0  0  0  0  0
    3.0122    1.0168    0.8608 H   0  0  0  0  0  0  0  0  0  0  0  0
    3.4678    0.9866   -0.8501 H   0  0  0  0  0  0  0  0  0  0  0  0
   -1.0094    2.4346    0.1250 H   0  0  0  0  0  0  0  0  0  0  0  0
   -0.2452   -1.7249   -0.7659 H   0  0  0  0  0  0  0  0  0  0  0  0
   -3.3609    1.8813    0.6147 H   0  0  0  0  0  0  0  0  0  0  0  0
   -2.5616   -2.2638   -0.2599 H   0  0  0  0  0  0  0  0  0  0  0  0
   -4.6300   -1.5827    0.9094 H   0  0  0  0  0  0  0  0  0  0  0  0
   -4.9573    0.1105    1.2644 H   0  0  0  0  0  0  0  0  0  0  0  0
   -5.1410   -0.4916   -0.3999 H   0  0  0  0  0  0  0  0  0  0  0  0
    5.7468    0.4999   -0.2773 H   0  0  0  0  0  0  0  0  0  0  0  0
    6.0690   -0.8917    0.7788 H   0  0  0  0  0  0  0  0  0  0  0  0
    5.3014    0.5584    1.4602 H   0  0  0  0  0  0  0  0  0  0  0  0
  1  3  1  0  0  0  0
  1  4  1  0  0  0  0
  2  6  1  0  0  0  0
  2 12  1  0  0  0  0
  3  7  2  0  0  0  0
  3  8  1  0  0  0  0
  4  6  1  0  0  0  0
  4 13  1  0  0  0  0
  4 14  1  0  0  0  0
  5  9  2  0  0  0  0
  5 10  1  0  0  0  0
  5 11  1  0  0  0  0
  6 15  1  0  0  0  0
  6 16  1  0  0  0  0
  7  9  1  0  0  0  0
  7 17  1  0  0  0  0
  8 10  2  0  0  0  0
  8 18  1  0  0  0  0
  9 19  1  0  0  0  0
 10 20  1  0  0  0  0
 11 21  1  0  0  0  0
 11 22  1  0  0  0  0
 11 23  1  0  0  0  0
 12 24  1  0  0  0  0
 12 25  1  0  0  0  0
 12 26  1  0  0  0  0
M  END
> <PUBCHEM_COMPOUND_CID>
3086443

> <PUBCHEM_CONFORMER_RMSD>
0.6

> <PUBCHEM_CONFORMER_DIVERSEORDER>
4
13
17
10
9
18
6
5
1
7
12
8
11
3
14
2
15
16

> <PUBCHEM_MMFF94_PARTIAL_CHARGES>
16
1 -0.36
10 -0.15
11 0.14
12 0.28
17 0.15
18 0.15
19 0.15
2 -0.56
20 0.15
3 0.08
4 0.28
5 -0.14
6 0.28
7 -0.15
8 -0.15
9 -0.15

> <PUBCHEM_EFFECTIVE_ROTOR_COUNT>
4

> <PUBCHEM_PHARMACOPHORE_FEATURES>
3
1 1 acceptor
1 2 acceptor
6 3 5 7 8 9 10 rings

> <PUBCHEM_HEAVY_ATOM_COUNT>
12

> <PUBCHEM_ATOM_DEF_STEREO_COUNT>
0

> <PUBCHEM_ATOM_UDEF_STEREO_COUNT>
0

> <PUBCHEM_BOND_DEF_STEREO_COUNT>
0

> <PUBCHEM_BOND_UDEF_STEREO_COUNT>
0

> <PUBCHEM_ISOTOPIC_ATOM_COUNT>
0

> <PUBCHEM_COMPONENT_COUNT>
1

> <PUBCHEM_CACTVS_TAUTO_COUNT>
1

> <PUBCHEM_CONFORMER_ID>
002F186B00000004

> <PUBCHEM_MMFF94_ENERGY>
36.6798

> <PUBCHEM_FEATURE_SELFOVERLAP>
15.223

> <PUBCHEM_SHAPE_FINGERPRINT>
11401426 45 18272650143590091109
12119455 92 16773796974420752421
12251169 10 18342175583359915652
13024252 1 14923945635386923269
13690532 89 18113620105520552935
14123238 8 18342738524865788130
14993402 34 9943807764085306851
15219456 202 17774730744509817718
187816 3 11891329859539429575
200 152 15430034361703916328
20510252 161 18059862701405857673
20645464 45 17704356567261762581
20645477 70 13335002886501881936
20871999 31 8718535078862022041
21119208 17 9223229650405011986
22485316 2 17749103370797879466
2297311 6 18201170879662399156
23402539 116 18201994439641179877
42 15 18335140890648411474
449060 50 17775566442599108308

> <PUBCHEM_SHAPE_MULTIPOLES>
235.22
9.32
1.21
0.73
10.42
0.13
0.01
-1.48
2.78
-0.79
-0.03
0.04
-0.01
-0.09

> <PUBCHEM_SHAPE_SELFOVERLAP>
471.098

> <PUBCHEM_SHAPE_VOLUME>
140.1

> <PUBCHEM_COORDINATE_TYPE>
2
5
10

$$$$
