3086255
  -OEChem-11232109173D

 42 43  0     1  0  0  0  0  0999 V2000
    3.6069   -0.8319   -1.1288 O   0  0  0  0  0  0  0  0  0  0  0  0
   -1.4036    0.6694    0.3229 C   0  0  2  0  0  0  0  0  0  0  0  0
   -0.5994   -0.5475   -0.1408 C   0  0  2  0  0  0  0  0  0  0  0  0
   -2.8656    0.2751    0.0096 C   0  0  0  0  0  0  0  0  0  0  0  0
   -1.4099   -1.6974    0.4560 C   0  0  1  0  0  0  0  0  0  0  0  0
   -2.8761   -1.2678    0.2303 C   0  0  0  0  0  0  0  0  0  0  0  0
    0.8539   -0.4359    0.3100 C   0  0  0  0  0  0  0  0  0  0  0  0
   -0.8342    1.9482   -0.2830 C   0  0  0  0  0  0  0  0  0  0  0  0
    1.4801    0.8606   -0.2406 C   0  0  1  0  0  0  0  0  0  0  0  0
    0.6388    2.1015    0.1181 C   0  0  0  0  0  0  0  0  0  0  0  0
   -3.2898    0.5978   -1.4336 C   0  0  0  0  0  0  0  0  0  0  0  0
   -3.8378    0.9746    0.9687 C   0  0  0  0  0  0  0  0  0  0  0  0
   -1.0908   -3.0516   -0.1583 C   0  0  0  0  0  0  0  0  0  0  0  0
    2.9138    1.0195    0.2622 C   0  0  0  0  0  0  0  0  0  0  0  0
    3.7898   -0.1549   -0.1183 C   0  0  0  0  0  0  0  0  0  0  0  0
    4.9239   -0.4596    0.8257 C   0  0  0  0  0  0  0  0  0  0  0  0
   -1.3011    0.7543    1.4166 H   0  0  0  0  0  0  0  0  0  0  0  0
   -0.6158   -0.6173   -1.2377 H   0  0  0  0  0  0  0  0  0  0  0  0
   -1.2275   -1.7550    1.5377 H   0  0  0  0  0  0  0  0  0  0  0  0
   -3.3091   -1.7856   -0.6341 H   0  0  0  0  0  0  0  0  0  0  0  0
   -3.4774   -1.5543    1.1014 H   0  0  0  0  0  0  0  0  0  0  0  0
    0.9082   -0.4381    1.4064 H   0  0  0  0  0  0  0  0  0  0  0  0
    1.3977   -1.3208   -0.0344 H   0  0  0  0  0  0  0  0  0  0  0  0
   -1.4025    2.8189    0.0621 H   0  0  0  0  0  0  0  0  0  0  0  0
   -0.9005    1.9277   -1.3770 H   0  0  0  0  0  0  0  0  0  0  0  0
    1.5020    0.7809   -1.3367 H   0  0  0  0  0  0  0  0  0  0  0  0
    1.0555    2.9875   -0.3757 H   0  0  0  0  0  0  0  0  0  0  0  0
    0.6963    2.2860    1.1987 H   0  0  0  0  0  0  0  0  0  0  0  0
   -4.3005    0.2244   -1.6353 H   0  0  0  0  0  0  0  0  0  0  0  0
   -2.6194    0.1395   -2.1680 H   0  0  0  0  0  0  0  0  0  0  0  0
   -3.3008    1.6779   -1.6154 H   0  0  0  0  0  0  0  0  0  0  0  0
   -3.8001    2.0624    0.8457 H   0  0  0  0  0  0  0  0  0  0  0  0
   -3.5985    0.7493    2.0139 H   0  0  0  0  0  0  0  0  0  0  0  0
   -4.8692    0.6506    0.7894 H   0  0  0  0  0  0  0  0  0  0  0  0
   -1.7368   -3.8278    0.2648 H   0  0  0  0  0  0  0  0  0  0  0  0
   -1.2392   -3.0433   -1.2434 H   0  0  0  0  0  0  0  0  0  0  0  0
   -0.0519   -3.3348    0.0381 H   0  0  0  0  0  0  0  0  0  0  0  0
    2.9128    1.1141    1.3547 H   0  0  0  0  0  0  0  0  0  0  0  0
    3.3741    1.9236   -0.1519 H   0  0  0  0  0  0  0  0  0  0  0  0
    4.5223   -0.7574    1.7974 H   0  0  0  0  0  0  0  0  0  0  0  0
    5.5268   -1.2794    0.4251 H   0  0  0  0  0  0  0  0  0  0  0  0
    5.5587    0.4234    0.9327 H   0  0  0  0  0  0  0  0  0  0  0  0
  1 15  2  0  0  0  0
  2  3  1  0  0  0  0
  2  4  1  0  0  0  0
  2  8  1  0  0  0  0
  2 17  1  0  0  0  0
  3  5  1  0  0  0  0
  3  7  1  0  0  0  0
  3 18  1  0  0  0  0
  4  6  1  0  0  0  0
  4 11  1  0  0  0  0
  4 12  1  0  0  0  0
  5  6  1  0  0  0  0
  5 13  1  0  0  0  0
  5 19  1  0  0  0  0
  6 20  1  0  0  0  0
  6 21  1  0  0  0  0
  7  9  1  0  0  0  0
  7 22  1  0  0  0  0
  7 23  1  0  0  0  0
  8 10  1  0  0  0  0
  8 24  1  0  0  0  0
  8 25  1  0  0  0  0
  9 10  1  0  0  0  0
  9 14  1  0  0  0  0
  9 26  1  0  0  0  0
 10 27  1  0  0  0  0
 10 28  1  0  0  0  0
 11 29  1  0  0  0  0
 11 30  1  0  0  0  0
 11 31  1  0  0  0  0
 12 32  1  0  0  0  0
 12 33  1  0  0  0  0
 12 34  1  0  0  0  0
 13 35  1  0  0  0  0
 13 36  1  0  0  0  0
 13 37  1  0  0  0  0
 14 15  1  0  0  0  0
 14 38  1  0  0  0  0
 14 39  1  0  0  0  0
 15 16  1  0  0  0  0
 16 40  1  0  0  0  0
 16 41  1  0  0  0  0
 16 42  1  0  0  0  0
M  END
> <PUBCHEM_COMPOUND_CID>
3086255

> <PUBCHEM_CONFORMER_RMSD>
0.6

> <PUBCHEM_CONFORMER_DIVERSEORDER>
1
2
6
3
5
4

> <PUBCHEM_MMFF94_PARTIAL_CHARGES>
4
1 -0.57
14 0.06
15 0.45
16 0.06

> <PUBCHEM_EFFECTIVE_ROTOR_COUNT>
3.4

> <PUBCHEM_PHARMACOPHORE_FEATURES>
4
1 1 acceptor
3 4 11 12 hydrophobe
5 2 3 4 5 6 rings
6 2 3 7 8 9 10 rings

> <PUBCHEM_HEAVY_ATOM_COUNT>
16

> <PUBCHEM_ATOM_DEF_STEREO_COUNT>
4

> <PUBCHEM_ATOM_UDEF_STEREO_COUNT>
0

> <PUBCHEM_BOND_DEF_STEREO_COUNT>
0

> <PUBCHEM_BOND_UDEF_STEREO_COUNT>
0

> <PUBCHEM_ISOTOPIC_ATOM_COUNT>
0

> <PUBCHEM_COMPONENT_COUNT>
1

> <PUBCHEM_CACTVS_TAUTO_COUNT>
3

> <PUBCHEM_CONFORMER_ID>
002F17AF00000001

> <PUBCHEM_MMFF94_ENERGY>
43.2052

> <PUBCHEM_FEATURE_SELFOVERLAP>
20.359

> <PUBCHEM_SHAPE_FINGERPRINT>
10062212 137 18261105296625104034
10366900 7 17775558763287423048
10922523 26 18335422429959947916
10967382 1 18338519633840426363
11132069 177 18412825772249156584
12032990 46 18409172142201651433
12346177 29 18341602771871887214
124424 183 18333725831873167340
12555020 224 18337660949692997894
12592029 89 18260555472160278987
12932764 1 17604139415163529312
13140716 1 18337393858566672544
13296908 3 18336828701168852864
13380535 76 18341895177535045879
13544592 145 18130239146728915134
13675066 3 17603583032663353680
13862211 1 18409164433289561403
14115302 16 18260555545021637988
14911166 2 18336255791228574237
15099037 51 18408318874229386133
15196674 1 18409730702788283936
15207287 21 18131627876737203166
15309172 13 18408888408420250891
15375358 24 18201717362573881894
15375462 189 17967811639483616610
15442244 35 18338518659035883024
15880784 105 16200426971147095966
16752209 62 18189599567161395440
16945 1 18335414660364375681
17804303 29 18412549833617263208
18186145 218 18408885135375830108
18511873 20 18261114092707290632
200 152 17346591976178851396
20279233 1 18202566185598088702
20281475 54 18337675320869724308
20510252 161 18200594670797132952
20600515 1 18341620321440743236
20645476 183 17095243626643439770
21069387 34 17846211206760123005
21267235 1 18336836371769713322
21478907 32 17979633756305548655
21501502 16 18121505909999169956
22959321 94 18334287661462506512
23184049 29 18049442840009977186
2334 1 18048599514549021664
23366157 5 17825384348034003268
23402539 116 18272360954061111917
23463225 33 18335986449560731332
23493267 7 17168137893580873001
23559900 14 18413392047372376308
25 1 18190165803403024037
2748010 2 18193272120670984081
296302 2 14908180850083293816
3084891 72 18339638941093581073
4175511 318 17821723914599370463
43471831 8 18191871119450573395
465052 167 17605297227500022323
5104073 3 18337955691997512944
54173680 148 18265616670143228163
559249 180 17606106291859008362
57005193 9 18336536145377140874
58807428 26 18339370656067321715
69090 78 18341890796631233766
7364860 26 18052542367805470528
74978 22 18338234993493898056
81228 2 17830450936211063003
8809292 202 18335423503802083178
9709674 26 18272937137283603974

> <PUBCHEM_SHAPE_MULTIPOLES>
323.4
7.48
2.32
0.95
6.97
1.06
0.14
0.32
-0.53
-1.05
0.04
-0.27
-0.06
0.1

> <PUBCHEM_SHAPE_SELFOVERLAP>
655.255

> <PUBCHEM_SHAPE_VOLUME>
191.1

> <PUBCHEM_COORDINATE_TYPE>
2
5
10

$$$$
