3086398
  -OEChem-11232109493D

 34 34  0     1  0  0  0  0  0999 V2000
   -1.8296   -0.7245    0.0110 O   0  0  0  0  0  0  0  0  0  0  0  0
   -3.2056    1.1310    0.0328 O   0  0  0  0  0  0  0  0  0  0  0  0
    0.5783   -0.7339   -0.4688 C   0  0  1  0  0  0  0  0  0  0  0  0
   -0.7358    0.0810   -0.4111 C   0  0  2  0  0  0  0  0  0  0  0  0
    1.6486    0.3742   -0.3724 C   0  0  1  0  0  0  0  0  0  0  0  0
   -0.4462    1.1759    0.6267 C   0  0  0  0  0  0  0  0  0  0  0  0
    1.0755    1.3558    0.6583 C   0  0  0  0  0  0  0  0  0  0  0  0
    0.6750   -1.7857    0.6463 C   0  0  0  0  0  0  0  0  0  0  0  0
   -1.1053    0.6821   -1.7721 C   0  0  0  0  0  0  0  0  0  0  0  0
    3.0376   -0.0743   -0.0568 C   0  0  0  0  0  0  0  0  0  0  0  0
    3.8856    0.8925    0.7153 C   0  0  0  0  0  0  0  0  0  0  0  0
    3.5001   -1.2732   -0.4413 C   0  0  0  0  0  0  0  0  0  0  0  0
   -3.0116   -0.0660    0.1958 C   0  0  0  0  0  0  0  0  0  0  0  0
   -4.0668   -1.0348    0.6364 C   0  0  0  0  0  0  0  0  0  0  0  0
    0.6455   -1.2630   -1.4280 H   0  0  0  0  0  0  0  0  0  0  0  0
    1.7039    0.9042   -1.3330 H   0  0  0  0  0  0  0  0  0  0  0  0
   -0.7999    0.8901    1.6253 H   0  0  0  0  0  0  0  0  0  0  0  0
   -0.9256    2.1308    0.3835 H   0  0  0  0  0  0  0  0  0  0  0  0
    1.3524    2.3896    0.4227 H   0  0  0  0  0  0  0  0  0  0  0  0
    1.4135    1.1483    1.6798 H   0  0  0  0  0  0  0  0  0  0  0  0
    1.5337   -2.4514    0.5557 H   0  0  0  0  0  0  0  0  0  0  0  0
    0.7095   -1.3251    1.6393 H   0  0  0  0  0  0  0  0  0  0  0  0
   -0.1987   -2.4469    0.6246 H   0  0  0  0  0  0  0  0  0  0  0  0
   -0.2398    1.1259   -2.2737 H   0  0  0  0  0  0  0  0  0  0  0  0
   -1.5045   -0.0938   -2.4363 H   0  0  0  0  0  0  0  0  0  0  0  0
   -1.8536    1.4770   -1.7298 H   0  0  0  0  0  0  0  0  0  0  0  0
    3.8492    1.8900    0.2650 H   0  0  0  0  0  0  0  0  0  0  0  0
    3.5756    0.9562    1.7621 H   0  0  0  0  0  0  0  0  0  0  0  0
    4.9382    0.5863    0.7148 H   0  0  0  0  0  0  0  0  0  0  0  0
    4.5113   -1.5819   -0.1939 H   0  0  0  0  0  0  0  0  0  0  0  0
    2.9271   -1.9596   -1.0535 H   0  0  0  0  0  0  0  0  0  0  0  0
   -3.7732   -1.4971    1.5821 H   0  0  0  0  0  0  0  0  0  0  0  0
   -4.2164   -1.7951   -0.1343 H   0  0  0  0  0  0  0  0  0  0  0  0
   -5.0093   -0.5008    0.7873 H   0  0  0  0  0  0  0  0  0  0  0  0
  1  4  1  0  0  0  0
  1 13  1  0  0  0  0
  2 13  2  0  0  0  0
  3  4  1  0  0  0  0
  3  5  1  0  0  0  0
  3  8  1  0  0  0  0
  3 15  1  0  0  0  0
  4  6  1  0  0  0  0
  4  9  1  0  0  0  0
  5  7  1  0  0  0  0
  5 10  1  0  0  0  0
  5 16  1  0  0  0  0
  6  7  1  0  0  0  0
  6 17  1  0  0  0  0
  6 18  1  0  0  0  0
  7 19  1  0  0  0  0
  7 20  1  0  0  0  0
  8 21  1  0  0  0  0
  8 22  1  0  0  0  0
  8 23  1  0  0  0  0
  9 24  1  0  0  0  0
  9 25  1  0  0  0  0
  9 26  1  0  0  0  0
 10 11  1  0  0  0  0
 10 12  2  0  0  0  0
 11 27  1  0  0  0  0
 11 28  1  0  0  0  0
 11 29  1  0  0  0  0
 12 30  1  0  0  0  0
 12 31  1  0  0  0  0
 13 14  1  0  0  0  0
 14 32  1  0  0  0  0
 14 33  1  0  0  0  0
 14 34  1  0  0  0  0
M  END
> <PUBCHEM_COMPOUND_CID>
3086398

> <PUBCHEM_CONFORMER_RMSD>
0.6

> <PUBCHEM_CONFORMER_DIVERSEORDER>
1
9
8
6
4
5
2
7
3

> <PUBCHEM_MMFF94_PARTIAL_CHARGES>
11
1 -0.43
10 -0.28
11 0.14
12 -0.3
13 0.66
14 0.06
2 -0.57
30 0.15
31 0.15
4 0.28
5 0.14

> <PUBCHEM_EFFECTIVE_ROTOR_COUNT>
4

> <PUBCHEM_PHARMACOPHORE_FEATURES>
2
1 2 acceptor
5 3 4 5 6 7 rings

> <PUBCHEM_HEAVY_ATOM_COUNT>
14

> <PUBCHEM_ATOM_DEF_STEREO_COUNT>
3

> <PUBCHEM_ATOM_UDEF_STEREO_COUNT>
0

> <PUBCHEM_BOND_DEF_STEREO_COUNT>
0

> <PUBCHEM_BOND_UDEF_STEREO_COUNT>
0

> <PUBCHEM_ISOTOPIC_ATOM_COUNT>
0

> <PUBCHEM_COMPONENT_COUNT>
1

> <PUBCHEM_CACTVS_TAUTO_COUNT>
1

> <PUBCHEM_CONFORMER_ID>
002F183E00000001

> <PUBCHEM_MMFF94_ENERGY>
46.5038

> <PUBCHEM_FEATURE_SELFOVERLAP>
10.148

> <PUBCHEM_SHAPE_FINGERPRINT>
10219947 1 17561367270397293636
10980938 120 18272933829847412958
11062470 55 11095887063964591235
11132069 177 18334574672024651779
11471102 20 18343295955427661436
11769659 78 18259983747430331338
11806522 49 18338234989663381791
12032990 46 18341057345416402582
12251169 10 18342458200613356111
12491281 212 16200152135630571072
12932764 1 17676480614755986900
13214271 11 18130782373654371396
13296908 3 18342175544457270582
13581323 91 17167855383448023850
13675066 3 18272931622218327192
14252887 29 18059587887749433830
14325111 11 18411419514067597704
14993402 34 16443354194894577558
15219456 202 18410853239661776868
15375462 478 17775290477912697993
16945 1 18410576218539758943
17844478 74 18333730212750540829
18186145 218 18335701611682572412
19026448 4 18409729543052142501
19026448 5 15936127452140361492
19422 9 18202289086575711752
20281407 28 17967253083081388891
20645477 70 18130781205433914318
21501502 16 17979632669393011774
23402539 116 16298378067649438502
23557571 272 17604151415687029863
23559900 14 18413110555257968542
2748010 2 18268983198933212196
296302 2 12463567396175586930
3286 77 18410292548935038661
369184 2 18131346406361414492
45790113 50 18202289069965620004
5084963 1 18186806850903220846
5104073 3 18341897359346485771
528886 8 17632852044921332078
53655031 270 18271530784121939849
53812653 166 18411978065816187673
568465 68 18189917450654814379

> <PUBCHEM_SHAPE_MULTIPOLES>
276.37
6.44
1.52
1.05
0.94
0.24
-0.33
0.79
1.14
-0.27
0.25
0.14
-0.16
0.61

> <PUBCHEM_SHAPE_SELFOVERLAP>
556.818

> <PUBCHEM_SHAPE_VOLUME>
164.2

> <PUBCHEM_COORDINATE_TYPE>
2
5
10

$$$$
