3094320
  -OEChem-11232109203D

 44 44  0     0  0  0  0  0  0999 V2000
   -2.8893   -0.6417    0.7016 O   0  0  0  0  0  0  0  0  0  0  0  0
    1.2979   -2.5961   -1.1009 O   0  0  0  0  0  0  0  0  0  0  0  0
   -3.5954    0.0095   -1.3984 O   0  0  0  0  0  0  0  0  0  0  0  0
    3.0054    2.4952   -0.2217 C   0  0  0  0  0  0  0  0  0  0  0  0
    1.5622    2.5617   -0.7380 C   0  0  0  0  0  0  0  0  0  0  0  0
    3.4099    1.1643    0.4265 C   0  0  0  0  0  0  0  0  0  0  0  0
    0.5125    2.3805    0.3610 C   0  0  0  0  0  0  0  0  0  0  0  0
    3.3750   -0.0213   -0.5435 C   0  0  0  0  0  0  0  0  0  0  0  0
   -0.8946    2.2471   -0.2245 C   0  0  0  0  0  0  0  0  0  0  0  0
    3.5702   -1.3737    0.1542 C   0  0  0  0  0  0  0  0  0  0  0  0
   -1.9373    2.0755    0.8854 C   0  0  0  0  0  0  0  0  0  0  0  0
    2.3405   -1.8440    0.9359 C   0  0  0  0  0  0  0  0  0  0  0  0
   -3.3022    1.6536    0.3446 C   0  0  0  0  0  0  0  0  0  0  0  0
    1.1504   -2.1610    0.0408 C   0  0  0  0  0  0  0  0  0  0  0  0
   -0.2242   -1.9595    0.6601 C   0  0  0  0  0  0  0  0  0  0  0  0
   -1.3578   -2.2398   -0.3287 C   0  0  0  0  0  0  0  0  0  0  0  0
   -2.7371   -2.0107    0.2861 C   0  0  0  0  0  0  0  0  0  0  0  0
   -3.2862    0.2604   -0.2408 C   0  0  0  0  0  0  0  0  0  0  0  0
    3.1558    3.2980    0.5106 H   0  0  0  0  0  0  0  0  0  0  0  0
    3.6851    2.7054   -1.0566 H   0  0  0  0  0  0  0  0  0  0  0  0
    1.4129    1.8186   -1.5286 H   0  0  0  0  0  0  0  0  0  0  0  0
    1.4093    3.5397   -1.2116 H   0  0  0  0  0  0  0  0  0  0  0  0
    2.7833    0.9755    1.3021 H   0  0  0  0  0  0  0  0  0  0  0  0
    4.4329    1.2669    0.8109 H   0  0  0  0  0  0  0  0  0  0  0  0
    0.5543    3.2311    1.0517 H   0  0  0  0  0  0  0  0  0  0  0  0
    0.7227    1.4793    0.9452 H   0  0  0  0  0  0  0  0  0  0  0  0
    4.1794    0.1119   -1.2777 H   0  0  0  0  0  0  0  0  0  0  0  0
    2.4401   -0.0411   -1.1100 H   0  0  0  0  0  0  0  0  0  0  0  0
   -0.9129    1.3827   -0.8985 H   0  0  0  0  0  0  0  0  0  0  0  0
   -1.1399    3.1307   -0.8256 H   0  0  0  0  0  0  0  0  0  0  0  0
    4.4288   -1.3145    0.8336 H   0  0  0  0  0  0  0  0  0  0  0  0
    3.8231   -2.1232   -0.6058 H   0  0  0  0  0  0  0  0  0  0  0  0
   -2.0450    3.0262    1.4214 H   0  0  0  0  0  0  0  0  0  0  0  0
   -1.5840    1.3410    1.6188 H   0  0  0  0  0  0  0  0  0  0  0  0
    2.0440   -1.0902    1.6713 H   0  0  0  0  0  0  0  0  0  0  0  0
    2.5808   -2.7612    1.4854 H   0  0  0  0  0  0  0  0  0  0  0  0
   -3.6355    2.3532   -0.4305 H   0  0  0  0  0  0  0  0  0  0  0  0
   -4.0535    1.6739    1.1420 H   0  0  0  0  0  0  0  0  0  0  0  0
   -0.3061   -2.6274    1.5244 H   0  0  0  0  0  0  0  0  0  0  0  0
   -0.2807   -0.9240    1.0112 H   0  0  0  0  0  0  0  0  0  0  0  0
   -1.2331   -1.5910   -1.2042 H   0  0  0  0  0  0  0  0  0  0  0  0
   -1.2914   -3.2751   -0.6835 H   0  0  0  0  0  0  0  0  0  0  0  0
   -3.5299   -2.2862   -0.4188 H   0  0  0  0  0  0  0  0  0  0  0  0
   -2.8658   -2.6355    1.1763 H   0  0  0  0  0  0  0  0  0  0  0  0
  1 17  1  0  0  0  0
  1 18  1  0  0  0  0
  2 14  2  0  0  0  0
  3 18  2  0  0  0  0
  4  5  1  0  0  0  0
  4  6  1  0  0  0  0
  4 19  1  0  0  0  0
  4 20  1  0  0  0  0
  5  7  1  0  0  0  0
  5 21  1  0  0  0  0
  5 22  1  0  0  0  0
  6  8  1  0  0  0  0
  6 23  1  0  0  0  0
  6 24  1  0  0  0  0
  7  9  1  0  0  0  0
  7 25  1  0  0  0  0
  7 26  1  0  0  0  0
  8 10  1  0  0  0  0
  8 27  1  0  0  0  0
  8 28  1  0  0  0  0
  9 11  1  0  0  0  0
  9 29  1  0  0  0  0
  9 30  1  0  0  0  0
 10 12  1  0  0  0  0
 10 31  1  0  0  0  0
 10 32  1  0  0  0  0
 11 13  1  0  0  0  0
 11 33  1  0  0  0  0
 11 34  1  0  0  0  0
 12 14  1  0  0  0  0
 12 35  1  0  0  0  0
 12 36  1  0  0  0  0
 13 18  1  0  0  0  0
 13 37  1  0  0  0  0
 13 38  1  0  0  0  0
 14 15  1  0  0  0  0
 15 16  1  0  0  0  0
 15 39  1  0  0  0  0
 15 40  1  0  0  0  0
 16 17  1  0  0  0  0
 16 41  1  0  0  0  0
 16 42  1  0  0  0  0
 17 43  1  0  0  0  0
 17 44  1  0  0  0  0
M  END
> <PUBCHEM_COMPOUND_CID>
3094320

> <PUBCHEM_CONFORMER_RMSD>
0.6

> <PUBCHEM_CONFORMER_DIVERSEORDER>
1
73
25
83
64
67
21
36
35
26
82
69
52
80
77
17
41
42
58
76
28
22
47
31
46
43
48
57
81
38
50
59
75
65
16
70
74
10
60
34
30
66
78
71
85
44
72
49
27
62
6
56
63
39
40
2
51
68
33
29
79
61
5
13
37
4
53
45
12
3
23
55
9
20
7
11
19
54
32
8
15
18
24
84
14

> <PUBCHEM_MMFF94_PARTIAL_CHARGES>
9
1 -0.43
12 0.06
13 0.06
14 0.45
15 0.06
17 0.28
18 0.66
2 -0.57
3 -0.57

> <PUBCHEM_EFFECTIVE_ROTOR_COUNT>
2.8

> <PUBCHEM_PHARMACOPHORE_FEATURES>
2
1 2 acceptor
1 3 acceptor

> <PUBCHEM_HEAVY_ATOM_COUNT>
18

> <PUBCHEM_ATOM_DEF_STEREO_COUNT>
0

> <PUBCHEM_ATOM_UDEF_STEREO_COUNT>
0

> <PUBCHEM_BOND_DEF_STEREO_COUNT>
0

> <PUBCHEM_BOND_UDEF_STEREO_COUNT>
0

> <PUBCHEM_ISOTOPIC_ATOM_COUNT>
0

> <PUBCHEM_COMPONENT_COUNT>
1

> <PUBCHEM_CACTVS_TAUTO_COUNT>
3

> <PUBCHEM_CONFORMER_ID>
002F373000000001

> <PUBCHEM_MMFF94_ENERGY>
11.8428

> <PUBCHEM_FEATURE_SELFOVERLAP>
10.149

> <PUBCHEM_SHAPE_FINGERPRINT>
10616163 171 18338521940264348544
10708813 3 18410299103113440480
10759866 29 17824545407940378900
12038231 1 18409731733612167888
12539773 59 17774718641666679497
12553582 1 18265619784057983528
12596599 1 17773889600987524948
13122387 1 17329430541042036400
14251705 54 18336552732118643681
14251745 187 18341607165792008904
14765038 42 17550701092759552489
14931854 50 18410011069647576268
15006816 218 18411705404107262349
17492 54 18261675882966762300
19930381 70 16681472425861083026
20621476 13 18336817628585051252
20905425 154 18197224851992952623
21249577 28 18409451392596325296
21673915 165 18411980303995776360
22749437 52 18410289237499546144
44154327 71 17977953384382874033
5939293 188 18410573951255910488
7064713 232 17983850090970450888

> <PUBCHEM_SHAPE_MULTIPOLES>
352.82
6.8
4.09
0.97
0.47
0.27
0.09
0.67
0.29
-0.96
0.04
0.17
-0.08
-0.42

> <PUBCHEM_SHAPE_SELFOVERLAP>
675.068

> <PUBCHEM_SHAPE_VOLUME>
213

> <PUBCHEM_COORDINATE_TYPE>
2
5
10

$$$$
