31227
  -OEChem-11232108543D

 31 31  0     0  0  0  0  0  0999 V2000
    0.5304   -0.0038    0.1186 O   0  0  0  0  0  0  0  0  0  0  0  0
    4.2919   -0.0026    0.5555 C   0  0  0  0  0  0  0  0  0  0  0  0
    2.7939   -0.0065    0.9006 C   0  0  0  0  0  0  0  0  0  0  0  0
    1.8828   -0.0211   -0.3210 C   0  0  0  0  0  0  0  0  0  0  0  0
    4.6353   -1.2359   -0.2832 C   0  0  0  0  0  0  0  0  0  0  0  0
    4.7145    1.2636   -0.1907 C   0  0  0  0  0  0  0  0  0  0  0  0
   -0.3738   -0.0318   -0.9769 C   0  0  0  0  0  0  0  0  0  0  0  0
   -1.7795   -0.0119   -0.4524 C   0  0  0  0  0  0  0  0  0  0  0  0
   -2.4285   -1.2103   -0.1769 C   0  0  0  0  0  0  0  0  0  0  0  0
   -2.4204    1.2047   -0.2462 C   0  0  0  0  0  0  0  0  0  0  0  0
   -3.7352   -1.1920    0.3108 C   0  0  0  0  0  0  0  0  0  0  0  0
   -3.7270    1.2230    0.2417 C   0  0  0  0  0  0  0  0  0  0  0  0
   -4.3843    0.0246    0.5202 C   0  0  0  0  0  0  0  0  0  0  0  0
    4.8536   -0.0524    1.4965 H   0  0  0  0  0  0  0  0  0  0  0  0
    2.5551    0.8685    1.5188 H   0  0  0  0  0  0  0  0  0  0  0  0
    2.5615   -0.8760    1.5293 H   0  0  0  0  0  0  0  0  0  0  0  0
    2.0605    0.8576   -0.9494 H   0  0  0  0  0  0  0  0  0  0  0  0
    2.0421   -0.9254   -0.9168 H   0  0  0  0  0  0  0  0  0  0  0  0
    5.7226   -1.3313   -0.3810 H   0  0  0  0  0  0  0  0  0  0  0  0
    4.2267   -1.1803   -1.2972 H   0  0  0  0  0  0  0  0  0  0  0  0
    4.2667   -2.1515    0.1911 H   0  0  0  0  0  0  0  0  0  0  0  0
    4.2699    1.3251   -1.1889 H   0  0  0  0  0  0  0  0  0  0  0  0
    5.8027    1.2860   -0.3151 H   0  0  0  0  0  0  0  0  0  0  0  0
    4.4252    2.1589    0.3693 H   0  0  0  0  0  0  0  0  0  0  0  0
   -0.2092   -0.9346   -1.5785 H   0  0  0  0  0  0  0  0  0  0  0  0
   -0.2023    0.8339   -1.6290 H   0  0  0  0  0  0  0  0  0  0  0  0
   -1.9315   -2.1636   -0.3341 H   0  0  0  0  0  0  0  0  0  0  0  0
   -1.9171    2.1441   -0.4577 H   0  0  0  0  0  0  0  0  0  0  0  0
   -4.2469   -2.1249    0.5283 H   0  0  0  0  0  0  0  0  0  0  0  0
   -4.2324    2.1702    0.4054 H   0  0  0  0  0  0  0  0  0  0  0  0
   -5.4017    0.0390    0.9004 H   0  0  0  0  0  0  0  0  0  0  0  0
  1  4  1  0  0  0  0
  1  7  1  0  0  0  0
  2  3  1  0  0  0  0
  2  5  1  0  0  0  0
  2  6  1  0  0  0  0
  2 14  1  0  0  0  0
  3  4  1  0  0  0  0
  3 15  1  0  0  0  0
  3 16  1  0  0  0  0
  4 17  1  0  0  0  0
  4 18  1  0  0  0  0
  5 19  1  0  0  0  0
  5 20  1  0  0  0  0
  5 21  1  0  0  0  0
  6 22  1  0  0  0  0
  6 23  1  0  0  0  0
  6 24  1  0  0  0  0
  7  8  1  0  0  0  0
  7 25  1  0  0  0  0
  7 26  1  0  0  0  0
  8  9  2  0  0  0  0
  8 10  1  0  0  0  0
  9 11  1  0  0  0  0
  9 27  1  0  0  0  0
 10 12  2  0  0  0  0
 10 28  1  0  0  0  0
 11 13  2  0  0  0  0
 11 29  1  0  0  0  0
 12 13  1  0  0  0  0
 12 30  1  0  0  0  0
 13 31  1  0  0  0  0
M  END
> <PUBCHEM_COMPOUND_CID>
31227

> <PUBCHEM_CONFORMER_RMSD>
0.6

> <PUBCHEM_CONFORMER_DIVERSEORDER>
1
19
6
7
4
11
10
5
13
2
14
3
15
18
12
16
17
9
8

> <PUBCHEM_MMFF94_PARTIAL_CHARGES>
14
1 -0.56
10 -0.15
11 -0.15
12 -0.15
13 -0.15
27 0.15
28 0.15
29 0.15
30 0.15
31 0.15
4 0.28
7 0.42
8 -0.14
9 -0.15

> <PUBCHEM_EFFECTIVE_ROTOR_COUNT>
5

> <PUBCHEM_PHARMACOPHORE_FEATURES>
3
1 1 acceptor
3 2 5 6 hydrophobe
6 8 9 10 11 12 13 rings

> <PUBCHEM_HEAVY_ATOM_COUNT>
13

> <PUBCHEM_ATOM_DEF_STEREO_COUNT>
0

> <PUBCHEM_ATOM_UDEF_STEREO_COUNT>
0

> <PUBCHEM_BOND_DEF_STEREO_COUNT>
0

> <PUBCHEM_BOND_UDEF_STEREO_COUNT>
0

> <PUBCHEM_ISOTOPIC_ATOM_COUNT>
0

> <PUBCHEM_COMPONENT_COUNT>
1

> <PUBCHEM_CACTVS_TAUTO_COUNT>
1

> <PUBCHEM_CONFORMER_ID>
000079FB00000001

> <PUBCHEM_MMFF94_ENERGY>
26.0891

> <PUBCHEM_FEATURE_SELFOVERLAP>
15.223

> <PUBCHEM_SHAPE_FINGERPRINT>
10014705 185 18187639189837891861
10680689 15 17385440999058663469
11128504 68 16660659440326976102
114248 4 7997965773684656847
12251169 10 18408041823126908653
124424 183 17704067382781799793
13167823 11 18335136479859761290
13675066 3 18131626786105633874
13897977 58 18410295838880266813
14123238 8 18412825806592973212
14445660 50 18334575728570619816
17834072 33 18261677060114887900
17844677 252 18411145718735401680
18186145 218 18113329800418057900
200 152 14273454786406860007
20279233 1 17704077282823946055
20432913 95 16153425038875846840
20645464 45 17918278649553536839
20645477 70 17417816089475403766
20828058 21 18412544314652632318
22485316 2 17095516288362868649
2297311 6 18340217322764426252
23402539 116 18272925030155567709
23557571 272 12974151940056604254
23559900 14 18270965614140243238
42 15 18411138017774390654
4214541 1 18410573959513691576
449060 50 18411982450988378788
5104073 3 18410290311531280984
522135 26 18060701680876373766
77779 3 18410856560003747490

> <PUBCHEM_SHAPE_MULTIPOLES>
261.66
11.29
1.31
0.85
7.42
0.02
0
0.16
1.56
-0.26
-0.04
0.13
-0.01
0.07

> <PUBCHEM_SHAPE_SELFOVERLAP>
517.559

> <PUBCHEM_SHAPE_VOLUME>
157.1

> <PUBCHEM_COORDINATE_TYPE>
2
5
10

$$$$
