31492
  -OEChem-11232109233D

 19 19  0     1  0  0  0  0  0999 V2000
   -0.6484    1.1418   -0.3376 O   0  0  0  0  0  0  0  0  0  0  0  0
   -0.4091   -1.1221    0.4567 N   0  0  0  0  0  0  0  0  0  0  0  0
    0.7277    0.7729   -0.4663 C   0  0  2  0  0  0  0  0  0  0  0  0
   -1.2506    0.0825    0.4099 C   0  0  2  0  0  0  0  0  0  0  0  0
    0.6935   -0.6765   -0.0638 C   0  0  0  0  0  0  0  0  0  0  0  0
    1.5777    1.6125    0.4659 C   0  0  0  0  0  0  0  0  0  0  0  0
   -2.5866   -0.2633   -0.2255 C   0  0  0  0  0  0  0  0  0  0  0  0
    1.8957   -1.5477   -0.2395 C   0  0  0  0  0  0  0  0  0  0  0  0
    1.0345    0.8813   -1.5101 H   0  0  0  0  0  0  0  0  0  0  0  0
   -1.4170    0.4434    1.4321 H   0  0  0  0  0  0  0  0  0  0  0  0
    1.4596    2.6766    0.2368 H   0  0  0  0  0  0  0  0  0  0  0  0
    1.2762    1.4767    1.5108 H   0  0  0  0  0  0  0  0  0  0  0  0
    2.6367    1.3500    0.3821 H   0  0  0  0  0  0  0  0  0  0  0  0
   -3.2356    0.6179   -0.2623 H   0  0  0  0  0  0  0  0  0  0  0  0
   -2.4504   -0.6025   -1.2587 H   0  0  0  0  0  0  0  0  0  0  0  0
   -3.0970   -1.0562    0.3300 H   0  0  0  0  0  0  0  0  0  0  0  0
    2.6834   -1.2245    0.4457 H   0  0  0  0  0  0  0  0  0  0  0  0
    2.2574   -1.4660   -1.2678 H   0  0  0  0  0  0  0  0  0  0  0  0
    1.6451   -2.5908   -0.0295 H   0  0  0  0  0  0  0  0  0  0  0  0
  1  3  1  0  0  0  0
  1  4  1  0  0  0  0
  2  4  1  0  0  0  0
  2  5  2  0  0  0  0
  3  5  1  0  0  0  0
  3  6  1  0  0  0  0
  3  9  1  0  0  0  0
  4  7  1  0  0  0  0
  4 10  1  0  0  0  0
  5  8  1  0  0  0  0
  6 11  1  0  0  0  0
  6 12  1  0  0  0  0
  6 13  1  0  0  0  0
  7 14  1  0  0  0  0
  7 15  1  0  0  0  0
  7 16  1  0  0  0  0
  8 17  1  0  0  0  0
  8 18  1  0  0  0  0
  8 19  1  0  0  0  0
M  END
> <PUBCHEM_COMPOUND_CID>
31492

> <PUBCHEM_CONFORMER_RMSD>
0.4

> <PUBCHEM_CONFORMER_DIVERSEORDER>
1
4
2
3

> <PUBCHEM_MMFF94_PARTIAL_CHARGES>
6
1 -0.56
2 -0.7
3 0.34
4 0.53
5 0.33
8 0.06

> <PUBCHEM_EFFECTIVE_ROTOR_COUNT>
0.6

> <PUBCHEM_PHARMACOPHORE_FEATURES>
3
1 1 acceptor
1 2 acceptor
5 1 2 3 4 5 rings

> <PUBCHEM_HEAVY_ATOM_COUNT>
8

> <PUBCHEM_ATOM_DEF_STEREO_COUNT>
0

> <PUBCHEM_ATOM_UDEF_STEREO_COUNT>
2

> <PUBCHEM_BOND_DEF_STEREO_COUNT>
0

> <PUBCHEM_BOND_UDEF_STEREO_COUNT>
0

> <PUBCHEM_ISOTOPIC_ATOM_COUNT>
0

> <PUBCHEM_COMPONENT_COUNT>
1

> <PUBCHEM_CACTVS_TAUTO_COUNT>
1

> <PUBCHEM_CONFORMER_ID>
00007B0400000001

> <PUBCHEM_MMFF94_ENERGY>
10.7766

> <PUBCHEM_FEATURE_SELFOVERLAP>
15.253

> <PUBCHEM_SHAPE_FINGERPRINT>
21040471 1 18120097439919964181
23552423 10 18187373094664158319
23552449 11 18410282597422051923
29004967 10 17986669273054076974

> <PUBCHEM_SHAPE_MULTIPOLES>
153.79
2.7
1.67
0.72
1.29
0.06
-0.01
-0.33
0.1
-1.1
-0.06
-0.01
0.04
0.21

> <PUBCHEM_SHAPE_SELFOVERLAP>
300.647

> <PUBCHEM_SHAPE_VOLUME>
95

> <PUBCHEM_COORDINATE_TYPE>
2
5
10

$$$$
