316771
  -OEChem-11232108593D

 32 33  0     0  0  0  0  0  0999 V2000
    1.0840    0.6373   -0.2827 O   0  0  0  0  0  0  0  0  0  0  0  0
    2.5623    2.3838   -0.1421 O   0  0  0  0  0  0  0  0  0  0  0  0
   -3.5823    0.2158    0.1748 C   0  0  0  0  0  0  0  0  0  0  0  0
    3.3947    0.1712   -0.0006 C   0  0  0  0  0  0  0  0  0  0  0  0
    0.0126    1.5593   -0.4270 C   0  0  0  0  0  0  0  0  0  0  0  0
   -2.3173    0.9267    0.2759 C   0  0  0  0  0  0  0  0  0  0  0  0
   -1.2646    0.7938   -0.5628 C   0  0  0  0  0  0  0  0  0  0  0  0
   -3.6609   -0.9662   -0.5618 C   0  0  0  0  0  0  0  0  0  0  0  0
   -4.7167    0.7158    0.8142 C   0  0  0  0  0  0  0  0  0  0  0  0
    4.7149    0.5776    0.1477 C   0  0  0  0  0  0  0  0  0  0  0  0
    3.0629   -1.1780   -0.0131 C   0  0  0  0  0  0  0  0  0  0  0  0
    2.3395    1.1775   -0.1450 C   0  0  0  0  0  0  0  0  0  0  0  0
   -4.8740   -1.6480   -0.6591 C   0  0  0  0  0  0  0  0  0  0  0  0
   -5.9296    0.0341    0.7169 C   0  0  0  0  0  0  0  0  0  0  0  0
   -6.0082   -1.1479   -0.0197 C   0  0  0  0  0  0  0  0  0  0  0  0
    5.7195   -0.3802    0.2854 C   0  0  0  0  0  0  0  0  0  0  0  0
    4.0675   -2.1357    0.1247 C   0  0  0  0  0  0  0  0  0  0  0  0
    5.3957   -1.7369    0.2741 C   0  0  0  0  0  0  0  0  0  0  0  0
    0.1648    2.1591   -1.3316 H   0  0  0  0  0  0  0  0  0  0  0  0
   -0.0157    2.2278    0.4415 H   0  0  0  0  0  0  0  0  0  0  0  0
   -2.2353    1.6325    1.1000 H   0  0  0  0  0  0  0  0  0  0  0  0
   -1.3096    0.1247   -1.4173 H   0  0  0  0  0  0  0  0  0  0  0  0
   -2.8004   -1.4039   -1.0591 H   0  0  0  0  0  0  0  0  0  0  0  0
   -4.6751    1.6362    1.3918 H   0  0  0  0  0  0  0  0  0  0  0  0
    4.9885    1.6291    0.1594 H   0  0  0  0  0  0  0  0  0  0  0  0
    2.0411   -1.5278   -0.1270 H   0  0  0  0  0  0  0  0  0  0  0  0
   -4.9349   -2.5709   -1.2286 H   0  0  0  0  0  0  0  0  0  0  0  0
   -6.8130    0.4232    1.2146 H   0  0  0  0  0  0  0  0  0  0  0  0
   -6.9524   -1.6793   -0.0944 H   0  0  0  0  0  0  0  0  0  0  0  0
    6.7538   -0.0699    0.4016 H   0  0  0  0  0  0  0  0  0  0  0  0
    3.8161   -3.1923    0.1160 H   0  0  0  0  0  0  0  0  0  0  0  0
    6.1778   -2.4827    0.3814 H   0  0  0  0  0  0  0  0  0  0  0  0
  1  5  1  0  0  0  0
  1 12  1  0  0  0  0
  2 12  2  0  0  0  0
  3  6  1  0  0  0  0
  3  8  2  0  0  0  0
  3  9  1  0  0  0  0
  4 10  2  0  0  0  0
  4 11  1  0  0  0  0
  4 12  1  0  0  0  0
  5  7  1  0  0  0  0
  5 19  1  0  0  0  0
  5 20  1  0  0  0  0
  6  7  2  3  0  0  0
  6 21  1  0  0  0  0
  7 22  1  0  0  0  0
  8 13  1  0  0  0  0
  8 23  1  0  0  0  0
  9 14  2  0  0  0  0
  9 24  1  0  0  0  0
 10 16  1  0  0  0  0
 10 25  1  0  0  0  0
 11 17  2  0  0  0  0
 11 26  1  0  0  0  0
 13 15  2  0  0  0  0
 13 27  1  0  0  0  0
 14 15  1  0  0  0  0
 14 28  1  0  0  0  0
 15 29  1  0  0  0  0
 16 18  2  0  0  0  0
 16 30  1  0  0  0  0
 17 18  1  0  0  0  0
 17 31  1  0  0  0  0
 18 32  1  0  0  0  0
M  END
> <PUBCHEM_COMPOUND_CID>
316771

> <PUBCHEM_CONFORMER_RMSD>
0.6

> <PUBCHEM_CONFORMER_DIVERSEORDER>
1
102
28
54
77
44
67
81
115
83
16
78
60
9
109
25
97
93
90
24
42
104
56
107
99
22
23
116
57
62
105
14
34
91
52
61
100
110
55
64
5
18
96
82
47
39
86
68
114
94
19
89
2
113
59
75
29
118
88
80
95
40
10
84
111
76
26
85
63
4
106
98
79
7
33
103
49
72
11
3
36
53
70
117
71
48
108
20
51
65
50
35
69
6
101
32
12
17
21
87
43
74
58
27
45
38
112
37
13
73
15
8
31
66
30
46
92
41

> <PUBCHEM_MMFF94_PARTIAL_CHARGES>
30
1 -0.43
10 -0.15
11 -0.15
12 0.63
13 -0.15
14 -0.15
15 -0.15
16 -0.15
17 -0.15
18 -0.15
2 -0.57
21 0.15
22 0.15
23 0.15
24 0.15
25 0.15
26 0.15
27 0.15
28 0.15
29 0.15
3 0.03
30 0.15
31 0.15
32 0.15
4 0.09
5 0.42
6 -0.18
7 -0.29
8 -0.15
9 -0.15

> <PUBCHEM_EFFECTIVE_ROTOR_COUNT>
5

> <PUBCHEM_PHARMACOPHORE_FEATURES>
3
1 2 acceptor
6 3 8 9 13 14 15 rings
6 4 10 11 16 17 18 rings

> <PUBCHEM_HEAVY_ATOM_COUNT>
18

> <PUBCHEM_ATOM_DEF_STEREO_COUNT>
0

> <PUBCHEM_ATOM_UDEF_STEREO_COUNT>
0

> <PUBCHEM_BOND_DEF_STEREO_COUNT>
0

> <PUBCHEM_BOND_UDEF_STEREO_COUNT>
1

> <PUBCHEM_ISOTOPIC_ATOM_COUNT>
0

> <PUBCHEM_COMPONENT_COUNT>
1

> <PUBCHEM_CACTVS_TAUTO_COUNT>
1

> <PUBCHEM_CONFORMER_ID>
0004D56300000001

> <PUBCHEM_MMFF94_ENERGY>
48.6539

> <PUBCHEM_FEATURE_SELFOVERLAP>
15.223

> <PUBCHEM_SHAPE_FINGERPRINT>
10912923 1 18130797801752132505
12107183 9 17909839738606754009
12236239 1 18272371979553267153
12596602 18 17489586783613013978
13167823 11 18412825802619778731
13533116 47 18411983602108536721
13551218 46 18411983533747872999
13668630 136 17676208000734943995
13685833 64 18187369835248042091
13914758 101 18411694362922711829
13955234 65 18266458892066854592
1420 369 18409449167629212166
14211702 104 18339088206624106039
14251764 18 18202567298200171223
14341114 176 18272092673345078312
15188451 53 16988267781765938543
15250474 111 18129372864473188191
15348495 7 16343414102662537451
15352361 1 18408885131107048182
17844677 252 18408608049956442669
17857418 61 18412543219436049743
17870717 6 16225767424380502987
1813 80 17676491635362806132
20028762 73 18343016688165283894
20621476 21 16951425372002090195
20645477 56 12175622875967766249
20645477 70 18113898290578909476
21065198 48 18272093811670115665
21267235 1 18339928117827829454
220451 1 18341341062497975541
23522609 53 18121532156714004372
23559900 14 18263922309987837481
2767999 5 11384111933931397379
2871803 45 17676485025740108616
2916195 48 11743838062733258789
3004659 81 18186517717662360536
314194 84 18334862714306798130
3421961 26 18411134766558500808
351380 3 18334856108378305291
4073 2 18115874164196990002
4214541 1 18411700959391409673
4325135 7 18186524315507392804
465052 167 18413674608379772686
5104073 3 18059582446642750201
559249 180 18411980248635493887
5718773 13 17969494910794078898
573450 72 18060142046595597985
57483677 66 18411418410361209961
5758199 1 18198902694823305928
59682541 35 18340196480395778800
6025842 7 18188495795564567100
67856867 119 18272369836196288161
9971528 1 18040997396861042317

> <PUBCHEM_SHAPE_MULTIPOLES>
358.69
16.84
2.02
0.77
5.33
0.17
0.02
7.53
2.43
-1.4
-0.16
0.51
0.01
-0.87

> <PUBCHEM_SHAPE_SELFOVERLAP>
762.133

> <PUBCHEM_SHAPE_VOLUME>
199.1

> <PUBCHEM_COORDINATE_TYPE>
2
5
10

$$$$
