317052
  -OEChem-11232109213D

 38 37  0     1  0  0  0  0  0999 V2000
   -5.9130   -0.2302   -0.4083 S   0  0  1  0  0  0  0  0  0  0  0  0
   -4.5012    0.4715   -0.0666 O   0  0  0  0  0  0  0  0  0  0  0  0
   -6.1519   -1.3021    0.6142 O   0  0  0  0  0  0  0  0  0  0  0  0
    1.6974   -0.4210   -0.1239 C   0  0  0  0  0  0  0  0  0  0  0  0
    2.9904    0.3221    0.2241 C   0  0  0  0  0  0  0  0  0  0  0  0
    0.4337    0.4005    0.1398 C   0  0  0  0  0  0  0  0  0  0  0  0
    4.2563   -0.4706   -0.1087 C   0  0  0  0  0  0  0  0  0  0  0  0
   -0.8273   -0.4001   -0.1959 C   0  0  0  0  0  0  0  0  0  0  0  0
    5.5156    0.3463    0.1906 C   0  0  0  0  0  0  0  0  0  0  0  0
   -2.0922    0.4310    0.0391 C   0  0  0  0  0  0  0  0  0  0  0  0
    6.7813   -0.4281   -0.1764 C   0  0  0  0  0  0  0  0  0  0  0  0
   -3.3597   -0.3348   -0.3200 C   0  0  0  0  0  0  0  0  0  0  0  0
    8.0330    0.3931    0.0883 C   0  0  0  0  0  0  0  0  0  0  0  0
   -6.8624    1.2223    0.1039 C   0  0  0  0  0  0  0  0  0  0  0  0
    1.6551   -1.3514    0.4559 H   0  0  0  0  0  0  0  0  0  0  0  0
    1.7233   -0.7088   -1.1823 H   0  0  0  0  0  0  0  0  0  0  0  0
    3.0087    1.2738   -0.3217 H   0  0  0  0  0  0  0  0  0  0  0  0
    2.9868    0.5706    1.2925 H   0  0  0  0  0  0  0  0  0  0  0  0
    0.4069    0.7049    1.1930 H   0  0  0  0  0  0  0  0  0  0  0  0
    0.4618    1.3169   -0.4619 H   0  0  0  0  0  0  0  0  0  0  0  0
    4.2700   -1.4013    0.4708 H   0  0  0  0  0  0  0  0  0  0  0  0
    4.2436   -0.7493   -1.1694 H   0  0  0  0  0  0  0  0  0  0  0  0
   -0.8641   -1.3071    0.4195 H   0  0  0  0  0  0  0  0  0  0  0  0
   -0.7907   -0.7205   -1.2442 H   0  0  0  0  0  0  0  0  0  0  0  0
    5.4857    1.2863   -0.3740 H   0  0  0  0  0  0  0  0  0  0  0  0
    5.5396    0.6094    1.2551 H   0  0  0  0  0  0  0  0  0  0  0  0
   -2.0523    1.3557   -0.5503 H   0  0  0  0  0  0  0  0  0  0  0  0
   -2.1455    0.7474    1.0883 H   0  0  0  0  0  0  0  0  0  0  0  0
    6.8299   -1.3576    0.4028 H   0  0  0  0  0  0  0  0  0  0  0  0
    6.7536   -0.7072   -1.2362 H   0  0  0  0  0  0  0  0  0  0  0  0
   -3.3326   -0.6121   -1.3814 H   0  0  0  0  0  0  0  0  0  0  0  0
   -3.4120   -1.2519    0.2801 H   0  0  0  0  0  0  0  0  0  0  0  0
    8.1079    0.6640    1.1463 H   0  0  0  0  0  0  0  0  0  0  0  0
    8.0305    1.3142   -0.5032 H   0  0  0  0  0  0  0  0  0  0  0  0
    8.9261   -0.1801   -0.1797 H   0  0  0  0  0  0  0  0  0  0  0  0
   -6.6203    2.0626   -0.5510 H   0  0  0  0  0  0  0  0  0  0  0  0
   -6.6243    1.4746    1.1402 H   0  0  0  0  0  0  0  0  0  0  0  0
   -7.9269    0.9915    0.0204 H   0  0  0  0  0  0  0  0  0  0  0  0
  1  2  1  0  0  0  0
  1  3  2  0  0  0  0
  1 14  1  0  0  0  0
  2 12  1  0  0  0  0
  4  5  1  0  0  0  0
  4  6  1  0  0  0  0
  4 15  1  0  0  0  0
  4 16  1  0  0  0  0
  5  7  1  0  0  0  0
  5 17  1  0  0  0  0
  5 18  1  0  0  0  0
  6  8  1  0  0  0  0
  6 19  1  0  0  0  0
  6 20  1  0  0  0  0
  7  9  1  0  0  0  0
  7 21  1  0  0  0  0
  7 22  1  0  0  0  0
  8 10  1  0  0  0  0
  8 23  1  0  0  0  0
  8 24  1  0  0  0  0
  9 11  1  0  0  0  0
  9 25  1  0  0  0  0
  9 26  1  0  0  0  0
 10 12  1  0  0  0  0
 10 27  1  0  0  0  0
 10 28  1  0  0  0  0
 11 13  1  0  0  0  0
 11 29  1  0  0  0  0
 11 30  1  0  0  0  0
 12 31  1  0  0  0  0
 12 32  1  0  0  0  0
 13 33  1  0  0  0  0
 13 34  1  0  0  0  0
 13 35  1  0  0  0  0
 14 36  1  0  0  0  0
 14 37  1  0  0  0  0
 14 38  1  0  0  0  0
M  END
> <PUBCHEM_COMPOUND_CID>
317052

> <PUBCHEM_CONFORMER_RMSD>
1

> <PUBCHEM_CONFORMER_DIVERSEORDER>
1
79
78
48
322
339
16
414
5
83
6
413
310
278
426
206
268
183
337
294
58
237
35
195
398
13
38
2
166
72
330
11
104
189
84
304
135
260
271
70
100
101
223
26
312
93
305
4
396
110
344
348
277
355
247
44
276
262
292
181
227
218
3
264
222
24
378
236
71
90
244
209
404
280
57
31
152
19
257
309
28
123
246
274
343
125
354
15
124
194
129
138
14
10
387
231
75
373
370
172
41
361
121
157
214
384
279
287
85
393
142
95
137
255
25
97
178
217
190
50
254
130
229
230
316
30
20
363
267
329
282
259
54
140
356
258
151
155
18
68
9
389
345
333
145
40
146
272
53
126
193
318
182
199
32
116
112
407
327
299
102
386
302
372
235
319
224
381
106
161
33
297
225
418
114
149
92
169
158
234
412
23
216
139
63
171
288
252
341
238
115
179
425
109
270
7
306
61
326
248
395
263
127
405
43
242
96
46
388
36
220
249
147
410
42
192
91
86
357
150
307
265
134
245
64
376
359
81
160
188
360
241
60
143
371
111
170
349
34
269
417
283
201
82
323
380
205
56
334
362
325
409
73
291
132
174
275
59
117
80
321
338
173
221
105
49
94
253
315
419
22
66
77
87
273
340
358
324
39
55
256
377
113
198
89
136
317
342
12
163
99
107
228
240
45
382
397
21
186
420
148
175
408
369
422
119
159
162
313
367
17
180
167
366
156
374
298
379
197
415
336
122
350
133
314
401
196
165
8
215
74
213
385
47
69
394
76
351
128
353
204
250
211
168
184
62
403
399
424
202
108
303
98
154
368
289
144
293
281
67
29
65
296
392
27
243
187
88
210
301
153
164
328
308
383
427
421
232
37
364
233
423
284
177
332
131
365
200
176
416
266
118
191
331
411
346
203
185
391
347
290
400
352
52
335
406
311
51
103
295
239
375
120
300
390
207
320
285
208
141
219
402
261
286
251
226
212

> <PUBCHEM_MMFF94_PARTIAL_CHARGES>
5
1 0.36
12 0.28
14 0.19
2 -0.33
3 -0.5

> <PUBCHEM_EFFECTIVE_ROTOR_COUNT>
10

> <PUBCHEM_PHARMACOPHORE_FEATURES>
1
1 13 hydrophobe

> <PUBCHEM_HEAVY_ATOM_COUNT>
14

> <PUBCHEM_ATOM_DEF_STEREO_COUNT>
0

> <PUBCHEM_ATOM_UDEF_STEREO_COUNT>
1

> <PUBCHEM_BOND_DEF_STEREO_COUNT>
0

> <PUBCHEM_BOND_UDEF_STEREO_COUNT>
0

> <PUBCHEM_ISOTOPIC_ATOM_COUNT>
0

> <PUBCHEM_COMPONENT_COUNT>
1

> <PUBCHEM_CACTVS_TAUTO_COUNT>
1

> <PUBCHEM_CONFORMER_ID>
0004D67C00000001

> <PUBCHEM_MMFF94_ENERGY>
0.5867

> <PUBCHEM_FEATURE_SELFOVERLAP>
5.074

> <PUBCHEM_SHAPE_FINGERPRINT>
10968037 39 18335137596651088623
11315181 36 17918277562963682433
12091667 2 18060699494711600967
13533116 47 16733252470689002424
14123256 10 18410011031536071748
1420 363 18343868822307685807
14251764 18 18261108573974995698
14251764 46 18410855464428423366
17834076 25 18040997341157653734
18006028 8 14979955869727744928
20281389 69 18259700091180082948
20621476 8 18410012096123634396
22224240 67 16588022433667543202
23035841 295 17894629257856409898
23402539 116 17632852036352561693
23521765 1 18341894090839332340
33684 2 18410854352031880686
42788 4 18413387639902409292
4463277 17 18343300370654223561
57583515 80 18408887334762842369
59567204 34 17703231707618851401
8209 1 18273494572039840701

> <PUBCHEM_SHAPE_MULTIPOLES>
280.22
23.91
0.94
0.67
9.18
0.01
0
1.77
0.42
-1.05
0.06
-0.21
-0.04
0.3

> <PUBCHEM_SHAPE_SELFOVERLAP>
490.368

> <PUBCHEM_SHAPE_VOLUME>
184.8

> <PUBCHEM_COORDINATE_TYPE>
2
5
10

$$$$
