32065
  -OEChem-11232109103D

 20 21  0     1  0  0  0  0  0999 V2000
    0.6462   -1.4816   -0.1612 N   0  0  0  0  0  0  0  0  0  0  0  0
    1.6181    1.1746    0.1356 N   0  0  0  0  0  0  0  0  0  0  0  0
   -1.6453   -0.4160   -0.3697 C   0  0  1  0  0  0  0  0  0  0  0  0
   -2.0093    0.9898    0.1590 C   0  0  0  0  0  0  0  0  0  0  0  0
   -0.7897    1.8870   -0.1099 C   0  0  0  0  0  0  0  0  0  0  0  0
   -0.1554   -0.4078   -0.1564 C   0  0  0  0  0  0  0  0  0  0  0  0
    0.3195    0.8840   -0.0166 C   0  0  0  0  0  0  0  0  0  0  0  0
   -2.3738   -1.5258    0.3686 C   0  0  0  0  0  0  0  0  0  0  0  0
    1.9578   -1.2000    0.0025 C   0  0  0  0  0  0  0  0  0  0  0  0
    2.4319    0.0958    0.1481 C   0  0  0  0  0  0  0  0  0  0  0  0
   -1.8466   -0.4756   -1.4461 H   0  0  0  0  0  0  0  0  0  0  0  0
   -2.1912    0.9527    1.2425 H   0  0  0  0  0  0  0  0  0  0  0  0
   -2.9193    1.3834   -0.3056 H   0  0  0  0  0  0  0  0  0  0  0  0
   -0.6957    2.6826    0.6337 H   0  0  0  0  0  0  0  0  0  0  0  0
   -0.8245    2.3135   -1.1173 H   0  0  0  0  0  0  0  0  0  0  0  0
   -2.0742   -2.5085   -0.0114 H   0  0  0  0  0  0  0  0  0  0  0  0
   -2.1557   -1.5089    1.4424 H   0  0  0  0  0  0  0  0  0  0  0  0
   -3.4567   -1.4287    0.2396 H   0  0  0  0  0  0  0  0  0  0  0  0
    2.6270   -2.0522    0.0110 H   0  0  0  0  0  0  0  0  0  0  0  0
    3.4880    0.3015    0.2758 H   0  0  0  0  0  0  0  0  0  0  0  0
  1  6  2  0  0  0  0
  1  9  1  0  0  0  0
  2  7  2  0  0  0  0
  2 10  1  0  0  0  0
  3  4  1  0  0  0  0
  3  6  1  0  0  0  0
  3  8  1  0  0  0  0
  3 11  1  0  0  0  0
  4  5  1  0  0  0  0
  4 12  1  0  0  0  0
  4 13  1  0  0  0  0
  5  7  1  0  0  0  0
  5 14  1  0  0  0  0
  5 15  1  0  0  0  0
  6  7  1  0  0  0  0
  8 16  1  0  0  0  0
  8 17  1  0  0  0  0
  8 18  1  0  0  0  0
  9 10  2  0  0  0  0
  9 19  1  0  0  0  0
 10 20  1  0  0  0  0
M  END
> <PUBCHEM_COMPOUND_CID>
32065

> <PUBCHEM_CONFORMER_RMSD>
0.4

> <PUBCHEM_CONFORMER_DIVERSEORDER>
1
2

> <PUBCHEM_MMFF94_PARTIAL_CHARGES>
10
1 -0.62
10 0.16
19 0.15
2 -0.62
20 0.15
3 0.14
5 0.14
6 0.17
7 0.17
9 0.16

> <PUBCHEM_EFFECTIVE_ROTOR_COUNT>
0.6

> <PUBCHEM_PHARMACOPHORE_FEATURES>
4
1 1 acceptor
1 2 acceptor
5 3 4 5 6 7 rings
6 1 2 6 7 9 10 rings

> <PUBCHEM_HEAVY_ATOM_COUNT>
10

> <PUBCHEM_ATOM_DEF_STEREO_COUNT>
0

> <PUBCHEM_ATOM_UDEF_STEREO_COUNT>
1

> <PUBCHEM_BOND_DEF_STEREO_COUNT>
0

> <PUBCHEM_BOND_UDEF_STEREO_COUNT>
0

> <PUBCHEM_ISOTOPIC_ATOM_COUNT>
0

> <PUBCHEM_COMPONENT_COUNT>
1

> <PUBCHEM_CACTVS_TAUTO_COUNT>
1

> <PUBCHEM_CONFORMER_ID>
00007D4100000001

> <PUBCHEM_MMFF94_ENERGY>
27.3952

> <PUBCHEM_FEATURE_SELFOVERLAP>
20.41

> <PUBCHEM_SHAPE_FINGERPRINT>
10857977 72 18338788026325498739
12897270 3 18410290324089147510
16945 1 18265896860755652284
18185500 45 18197211662206382823
19973954 147 18411138008978643212
21040471 1 18050848810439016860
23552423 10 18260833691461776598
241688 4 18408603651809133177
2748010 2 18411697711815437164
29004967 10 18336828705221097139
369184 2 17022900112332244864
5084963 1 18202003256681543602

> <PUBCHEM_SHAPE_MULTIPOLES>
195.83
3.24
1.88
0.64
0.32
0.13
0
-0.7
0.28
-0.48
0.05
-0.07
-0.02
0.13

> <PUBCHEM_SHAPE_SELFOVERLAP>
417.528

> <PUBCHEM_SHAPE_VOLUME>
108.5

> <PUBCHEM_COORDINATE_TYPE>
2
5
10

$$$$
