3458885
  -OEChem-11232109013D

 19 19  0     1  0  0  0  0  0999 V2000
    2.4425    1.1363    0.1018 S   0  0  0  0  0  0  0  0  0  0  0  0
   -3.8125    0.0131    0.1734 S   0  0  0  0  0  0  0  0  0  0  0  0
    0.2128   -0.2400   -0.2722 N   0  0  2  0  0  0  0  0  0  0  0  0
    1.2155   -1.1956    0.2114 C   0  0  0  0  0  0  0  0  0  0  0  0
    0.6288    1.0849    0.1893 C   0  0  0  0  0  0  0  0  0  0  0  0
    2.5755   -0.6429   -0.2009 C   0  0  0  0  0  0  0  0  0  0  0  0
   -1.1303   -0.5785    0.1791 C   0  0  0  0  0  0  0  0  0  0  0  0
   -2.1323    0.4227   -0.3819 C   0  0  0  0  0  0  0  0  0  0  0  0
    1.0648   -2.1859   -0.2325 H   0  0  0  0  0  0  0  0  0  0  0  0
    1.1681   -1.3096    1.3034 H   0  0  0  0  0  0  0  0  0  0  0  0
    0.2318    1.8801   -0.4481 H   0  0  0  0  0  0  0  0  0  0  0  0
    0.3428    1.2781    1.2294 H   0  0  0  0  0  0  0  0  0  0  0  0
   -1.1807   -0.6001    1.2761 H   0  0  0  0  0  0  0  0  0  0  0  0
   -1.3837   -1.5843   -0.1801 H   0  0  0  0  0  0  0  0  0  0  0  0
    3.3892   -1.0815    0.3829 H   0  0  0  0  0  0  0  0  0  0  0  0
    2.7672   -0.8097   -1.2657 H   0  0  0  0  0  0  0  0  0  0  0  0
   -2.1191    0.4217   -1.4770 H   0  0  0  0  0  0  0  0  0  0  0  0
   -1.9386    1.4425   -0.0383 H   0  0  0  0  0  0  0  0  0  0  0  0
   -3.8822   -1.1900   -0.4153 H   0  0  0  0  0  0  0  0  0  0  0  0
  1  5  1  0  0  0  0
  1  6  1  0  0  0  0
  2  8  1  0  0  0  0
  2 19  1  0  0  0  0
  3  4  1  0  0  0  0
  3  5  1  0  0  0  0
  3  7  1  0  0  0  0
  4  6  1  0  0  0  0
  4  9  1  0  0  0  0
  4 10  1  0  0  0  0
  5 11  1  0  0  0  0
  5 12  1  0  0  0  0
  6 15  1  0  0  0  0
  6 16  1  0  0  0  0
  7  8  1  0  0  0  0
  7 13  1  0  0  0  0
  7 14  1  0  0  0  0
  8 17  1  0  0  0  0
  8 18  1  0  0  0  0
M  END
> <PUBCHEM_COMPOUND_CID>
3458885

> <PUBCHEM_CONFORMER_RMSD>
0.6

> <PUBCHEM_CONFORMER_DIVERSEORDER>
1
10
11
7
9
12
6
8
5
4
2
3

> <PUBCHEM_MMFF94_PARTIAL_CHARGES>
9
1 -0.46
19 0.18
2 -0.41
3 -0.81
4 0.27
5 0.5
6 0.23
7 0.27
8 0.23

> <PUBCHEM_EFFECTIVE_ROTOR_COUNT>
3

> <PUBCHEM_PHARMACOPHORE_FEATURES>
2
1 3 cation
5 1 3 4 5 6 rings

> <PUBCHEM_HEAVY_ATOM_COUNT>
8

> <PUBCHEM_ATOM_DEF_STEREO_COUNT>
0

> <PUBCHEM_ATOM_UDEF_STEREO_COUNT>
0

> <PUBCHEM_BOND_DEF_STEREO_COUNT>
0

> <PUBCHEM_BOND_UDEF_STEREO_COUNT>
0

> <PUBCHEM_ISOTOPIC_ATOM_COUNT>
0

> <PUBCHEM_COMPONENT_COUNT>
1

> <PUBCHEM_CACTVS_TAUTO_COUNT>
1

> <PUBCHEM_CONFORMER_ID>
0034C74500000001

> <PUBCHEM_MMFF94_ENERGY>
9.4461

> <PUBCHEM_FEATURE_SELFOVERLAP>
10.148

> <PUBCHEM_SHAPE_FINGERPRINT>
10857977 72 17167866383006981421
11062470 55 12535626068234416843
12932764 1 18040990726860720567
14325111 11 18410855477751142637
14390081 3 18411979186950565585
20871998 22 17983579602736653030
21040471 1 18194117641229096744
21293036 1 18410302410480520486
23235685 24 18335977666015156800
23402655 69 18341887481507403237
23552333 60 18342738490289785312
29004967 10 18334859402781485330
3248919 1 17418375779369077911
5460574 1 10087637104833800695

> <PUBCHEM_SHAPE_MULTIPOLES>
167.35
5.39
1.25
0.68
4.47
0.05
-0.01
0.43
-0.09
-0.8
-0.06
0.05
0.01
0.12

> <PUBCHEM_SHAPE_SELFOVERLAP>
294.267

> <PUBCHEM_SHAPE_VOLUME>
113.5

> <PUBCHEM_COORDINATE_TYPE>
2
5
10

$$$$
