34590
  -OEChem-11232109133D

 19 19  0     0  0  0  0  0  0999 V2000
    0.1708   -1.1009   -0.0002 N   0  0  0  0  0  0  0  0  0  0  0  0
    1.9764    1.0452    0.0003 N   0  0  0  0  0  0  0  0  0  0  0  0
   -1.7130    0.4294    0.0002 C   0  0  0  0  0  0  0  0  0  0  0  0
   -0.2168    0.1765   -0.0001 C   0  0  0  0  0  0  0  0  0  0  0  0
   -2.3781   -0.1294    1.2604 C   0  0  0  0  0  0  0  0  0  0  0  0
   -2.3784   -0.1282   -1.2604 C   0  0  0  0  0  0  0  0  0  0  0  0
    0.6421    1.2354    0.0003 C   0  0  0  0  0  0  0  0  0  0  0  0
    1.5051   -1.2910   -0.0004 C   0  0  0  0  0  0  0  0  0  0  0  0
    2.3920   -0.2370   -0.0001 C   0  0  0  0  0  0  0  0  0  0  0  0
   -1.8868    1.5140    0.0007 H   0  0  0  0  0  0  0  0  0  0  0  0
   -2.2859   -1.2198    1.3166 H   0  0  0  0  0  0  0  0  0  0  0  0
   -3.4447    0.1186    1.2781 H   0  0  0  0  0  0  0  0  0  0  0  0
   -1.9199    0.2903    2.1630 H   0  0  0  0  0  0  0  0  0  0  0  0
   -1.9206    0.2923   -2.1626 H   0  0  0  0  0  0  0  0  0  0  0  0
   -3.4452    0.1197   -1.2775 H   0  0  0  0  0  0  0  0  0  0  0  0
   -2.2861   -1.2186   -1.3177 H   0  0  0  0  0  0  0  0  0  0  0  0
    0.3175    2.2683    0.0005 H   0  0  0  0  0  0  0  0  0  0  0  0
    1.8398   -2.3210   -0.0006 H   0  0  0  0  0  0  0  0  0  0  0  0
    3.4640   -0.3906   -0.0001 H   0  0  0  0  0  0  0  0  0  0  0  0
  1  4  2  0  0  0  0
  1  8  1  0  0  0  0
  2  7  2  0  0  0  0
  2  9  1  0  0  0  0
  3  4  1  0  0  0  0
  3  5  1  0  0  0  0
  3  6  1  0  0  0  0
  3 10  1  0  0  0  0
  4  7  1  0  0  0  0
  5 11  1  0  0  0  0
  5 12  1  0  0  0  0
  5 13  1  0  0  0  0
  6 14  1  0  0  0  0
  6 15  1  0  0  0  0
  6 16  1  0  0  0  0
  7 17  1  0  0  0  0
  8  9  2  0  0  0  0
  8 18  1  0  0  0  0
  9 19  1  0  0  0  0
M  END
> <PUBCHEM_COMPOUND_CID>
34590

> <PUBCHEM_CONFORMER_RMSD>
0.4

> <PUBCHEM_CONFORMER_DIVERSEORDER>
1
3
2

> <PUBCHEM_MMFF94_PARTIAL_CHARGES>
10
1 -0.62
17 0.15
18 0.15
19 0.15
2 -0.62
3 0.14
4 0.17
7 0.16
8 0.16
9 0.16

> <PUBCHEM_EFFECTIVE_ROTOR_COUNT>
1

> <PUBCHEM_PHARMACOPHORE_FEATURES>
4
1 1 acceptor
1 2 acceptor
3 3 5 6 hydrophobe
6 1 2 4 7 8 9 rings

> <PUBCHEM_HEAVY_ATOM_COUNT>
9

> <PUBCHEM_ATOM_DEF_STEREO_COUNT>
0

> <PUBCHEM_ATOM_UDEF_STEREO_COUNT>
0

> <PUBCHEM_BOND_DEF_STEREO_COUNT>
0

> <PUBCHEM_BOND_UDEF_STEREO_COUNT>
0

> <PUBCHEM_ISOTOPIC_ATOM_COUNT>
0

> <PUBCHEM_COMPONENT_COUNT>
1

> <PUBCHEM_CACTVS_TAUTO_COUNT>
2

> <PUBCHEM_CONFORMER_ID>
0000871E00000001

> <PUBCHEM_MMFF94_ENERGY>
20.4956

> <PUBCHEM_FEATURE_SELFOVERLAP>
20.301

> <PUBCHEM_SHAPE_FINGERPRINT>
10857977 72 17458634466075789873
12716758 59 16298942052911491737
12932741 1 17676487237474264047
12932764 1 17918276441370835769
16945 1 18410575089232346308
18185500 45 18130781239856695807
21040471 1 18266740362631773476
29004967 10 18333738987416049904
5084963 1 18130777979934346061

> <PUBCHEM_SHAPE_MULTIPOLES>
175.25
3.61
1.21
0.97
0.53
0
0
0.15
0
-0.6
0
0.88
0.07
0

> <PUBCHEM_SHAPE_SELFOVERLAP>
353.471

> <PUBCHEM_SHAPE_VOLUME>
102.7

> <PUBCHEM_COORDINATE_TYPE>
2
5
10

$$$$
