347577
  -OEChem-11232108493D

 24 24  0     0  0  0  0  0  0999 V2000
    2.5162    1.0224    0.2737 O   0  0  0  0  0  0  0  0  0  0  0  0
   -0.1234    1.6165    0.8488 O   0  0  0  0  0  0  0  0  0  0  0  0
   -0.7511   -0.6350    0.3435 C   0  0  0  0  0  0  0  0  0  0  0  0
   -2.1822   -0.3385    0.6487 C   0  0  0  0  0  0  0  0  0  0  0  0
    0.2229    0.3572    0.4567 C   0  0  0  0  0  0  0  0  0  0  0  0
    1.5554    0.0626    0.1678 C   0  0  0  0  0  0  0  0  0  0  0  0
   -0.3925   -1.9217   -0.0583 C   0  0  0  0  0  0  0  0  0  0  0  0
    1.9138   -1.2241   -0.2341 C   0  0  0  0  0  0  0  0  0  0  0  0
    0.9398   -2.2162   -0.3472 C   0  0  0  0  0  0  0  0  0  0  0  0
   -2.9549    0.1334   -0.5548 C   0  0  0  0  0  0  0  0  0  0  0  0
    2.7822    1.8044   -0.8890 C   0  0  0  0  0  0  0  0  0  0  0  0
   -3.5262    1.3388   -0.6558 C   0  0  0  0  0  0  0  0  0  0  0  0
   -2.6682   -1.2548    1.0123 H   0  0  0  0  0  0  0  0  0  0  0  0
   -2.2763    0.3556    1.4929 H   0  0  0  0  0  0  0  0  0  0  0  0
   -1.1402   -2.7049   -0.1528 H   0  0  0  0  0  0  0  0  0  0  0  0
    2.9499   -1.4611   -0.4604 H   0  0  0  0  0  0  0  0  0  0  0  0
    1.2190   -3.2179   -0.6606 H   0  0  0  0  0  0  0  0  0  0  0  0
   -3.0607   -0.5607   -1.3851 H   0  0  0  0  0  0  0  0  0  0  0  0
   -1.0726    1.7704    0.7305 H   0  0  0  0  0  0  0  0  0  0  0  0
    1.8850    2.3472   -1.2027 H   0  0  0  0  0  0  0  0  0  0  0  0
    3.1410    1.1684   -1.7045 H   0  0  0  0  0  0  0  0  0  0  0  0
    3.5619    2.5304   -0.6427 H   0  0  0  0  0  0  0  0  0  0  0  0
   -4.0746    1.6136   -1.5501 H   0  0  0  0  0  0  0  0  0  0  0  0
   -3.4590    2.0672    0.1446 H   0  0  0  0  0  0  0  0  0  0  0  0
  1  6  1  0  0  0  0
  1 11  1  0  0  0  0
  2  5  1  0  0  0  0
  2 19  1  0  0  0  0
  3  4  1  0  0  0  0
  3  5  2  0  0  0  0
  3  7  1  0  0  0  0
  4 10  1  0  0  0  0
  4 13  1  0  0  0  0
  4 14  1  0  0  0  0
  5  6  1  0  0  0  0
  6  8  2  0  0  0  0
  7  9  2  0  0  0  0
  7 15  1  0  0  0  0
  8  9  1  0  0  0  0
  8 16  1  0  0  0  0
  9 17  1  0  0  0  0
 10 12  2  0  0  0  0
 10 18  1  0  0  0  0
 11 20  1  0  0  0  0
 11 21  1  0  0  0  0
 11 22  1  0  0  0  0
 12 23  1  0  0  0  0
 12 24  1  0  0  0  0
M  END
> <PUBCHEM_COMPOUND_CID>
347577

> <PUBCHEM_CONFORMER_RMSD>
0.6

> <PUBCHEM_CONFORMER_DIVERSEORDER>
1
10
3
7
8
9
6
5
2
4

> <PUBCHEM_MMFF94_PARTIAL_CHARGES>
19
1 -0.36
10 -0.29
11 0.28
12 -0.3
15 0.15
16 0.15
17 0.15
18 0.15
19 0.45
2 -0.53
23 0.15
24 0.15
3 -0.14
4 0.28
5 0.08
6 0.08
7 -0.15
8 -0.15
9 -0.15

> <PUBCHEM_EFFECTIVE_ROTOR_COUNT>
3

> <PUBCHEM_PHARMACOPHORE_FEATURES>
4
1 1 acceptor
1 12 hydrophobe
1 2 donor
6 3 5 6 7 8 9 rings

> <PUBCHEM_HEAVY_ATOM_COUNT>
12

> <PUBCHEM_ATOM_DEF_STEREO_COUNT>
0

> <PUBCHEM_ATOM_UDEF_STEREO_COUNT>
0

> <PUBCHEM_BOND_DEF_STEREO_COUNT>
0

> <PUBCHEM_BOND_UDEF_STEREO_COUNT>
0

> <PUBCHEM_ISOTOPIC_ATOM_COUNT>
0

> <PUBCHEM_COMPONENT_COUNT>
1

> <PUBCHEM_CACTVS_TAUTO_COUNT>
3

> <PUBCHEM_CONFORMER_ID>
00054DB900000001

> <PUBCHEM_MMFF94_ENERGY>
38.2641

> <PUBCHEM_FEATURE_SELFOVERLAP>
20.297

> <PUBCHEM_SHAPE_FINGERPRINT>
11031198 65 18412544310484337021
11206711 2 18052271591370196238
11769659 78 12463303483125198284
12138202 97 18056490671121158462
14617773 55 17416418566671580641
15219456 202 18334019371845652699
15775835 57 18343580767915675725
16945 1 18268441126394076826
17775402 16 18343023297950491129
18186145 218 18339084787386240821
20201158 50 18266455404362934159
20645476 183 18042976565362207046
20820808 20 18410852136092565169
21040471 1 18269837686824103530
21524375 3 18262791985931863691
21947302 44 18334571296459762983
23402655 69 18270667668317334941
23493267 7 17967820478510604344
23552423 10 18268717099680945259
23559900 14 17914913148179186644
241688 4 17402617342227845186
25 1 18411138017711067565
2748010 2 18270412705577825002
3071541 158 18191590757133967638
63268167 104 18273494559423957851
81228 2 17188969554049397930

> <PUBCHEM_SHAPE_MULTIPOLES>
235.22
4.62
2.21
0.87
2.68
0.33
-0.02
-2.6
-1.24
-1.07
-0.36
0.09
-0.18
0.12

> <PUBCHEM_SHAPE_SELFOVERLAP>
482.036

> <PUBCHEM_SHAPE_VOLUME>
136.2

> <PUBCHEM_COORDINATE_TYPE>
2
5
10

$$$$
