357772
  -OEChem-11232108553D

 21 20  0     0  0  0  0  0  0999 V2000
   -1.7275   -0.4498   -0.0004 O   0  0  0  0  0  0  0  0  0  0  0  0
    4.3062    0.0908    0.0050 O   0  0  0  0  0  0  0  0  0  0  0  0
   -0.5685    1.5450    0.0074 O   0  0  0  0  0  0  0  0  0  0  0  0
    1.9151    0.2096   -0.0279 C   0  0  0  0  0  0  0  0  0  0  0  0
    0.6114   -0.5819   -0.0040 C   0  0  0  0  0  0  0  0  0  0  0  0
    3.1298   -0.7058    0.0148 C   0  0  0  0  0  0  0  0  0  0  0  0
   -0.6002    0.3221    0.0023 C   0  0  0  0  0  0  0  0  0  0  0  0
   -2.9657    0.2678    0.0031 C   0  0  0  0  0  0  0  0  0  0  0  0
   -4.1007   -0.6978   -0.0005 C   0  0  0  0  0  0  0  0  0  0  0  0
    1.9585    0.8405   -0.9250 H   0  0  0  0  0  0  0  0  0  0  0  0
    1.9549    0.9059    0.8197 H   0  0  0  0  0  0  0  0  0  0  0  0
    0.5735   -1.2059    0.8961 H   0  0  0  0  0  0  0  0  0  0  0  0
    0.5551   -1.2262   -0.8885 H   0  0  0  0  0  0  0  0  0  0  0  0
    3.1355   -1.3090    0.9278 H   0  0  0  0  0  0  0  0  0  0  0  0
    3.1562   -1.3803   -0.8469 H   0  0  0  0  0  0  0  0  0  0  0  0
   -3.0149    0.8984    0.8981 H   0  0  0  0  0  0  0  0  0  0  0  0
   -3.0157    0.9060   -0.8864 H   0  0  0  0  0  0  0  0  0  0  0  0
   -5.0631   -0.1780    0.0021 H   0  0  0  0  0  0  0  0  0  0  0  0
   -4.0579   -1.3473   -0.8813 H   0  0  0  0  0  0  0  0  0  0  0  0
   -4.0572   -1.3547    0.8749 H   0  0  0  0  0  0  0  0  0  0  0  0
    4.3086    0.6010   -0.8227 H   0  0  0  0  0  0  0  0  0  0  0  0
  1  7  1  0  0  0  0
  1  8  1  0  0  0  0
  2  6  1  0  0  0  0
  2 21  1  0  0  0  0
  3  7  2  0  0  0  0
  4  5  1  0  0  0  0
  4  6  1  0  0  0  0
  4 10  1  0  0  0  0
  4 11  1  0  0  0  0
  5  7  1  0  0  0  0
  5 12  1  0  0  0  0
  5 13  1  0  0  0  0
  6 14  1  0  0  0  0
  6 15  1  0  0  0  0
  8  9  1  0  0  0  0
  8 16  1  0  0  0  0
  8 17  1  0  0  0  0
  9 18  1  0  0  0  0
  9 19  1  0  0  0  0
  9 20  1  0  0  0  0
M  END
> <PUBCHEM_COMPOUND_CID>
357772

> <PUBCHEM_CONFORMER_RMSD>
0.6

> <PUBCHEM_CONFORMER_DIVERSEORDER>
1
74
60
83
78
86
37
47
13
77
82
79
33
65
84
2
68
55
39
20
67
42
57
8
88
15
10
93
48
73
53
41
27
45
9
44
32
40
63
29
3
6
12
38
87
36
11
46
62
16
28
31
49
23
34
80
43
35
69
89
92
14
25
21
91
52
19
71
54
81
56
64
22
70
7
18
72
26
76
51
85
58
90
61
4
75
66
5
17
30
50
24
59

> <PUBCHEM_MMFF94_PARTIAL_CHARGES>
8
1 -0.43
2 -0.68
21 0.4
3 -0.57
5 0.06
6 0.28
7 0.66
8 0.28

> <PUBCHEM_EFFECTIVE_ROTOR_COUNT>
5

> <PUBCHEM_PHARMACOPHORE_FEATURES>
3
1 2 acceptor
1 2 donor
1 3 acceptor

> <PUBCHEM_HEAVY_ATOM_COUNT>
9

> <PUBCHEM_ATOM_DEF_STEREO_COUNT>
0

> <PUBCHEM_ATOM_UDEF_STEREO_COUNT>
0

> <PUBCHEM_BOND_DEF_STEREO_COUNT>
0

> <PUBCHEM_BOND_UDEF_STEREO_COUNT>
0

> <PUBCHEM_ISOTOPIC_ATOM_COUNT>
0

> <PUBCHEM_COMPONENT_COUNT>
1

> <PUBCHEM_CACTVS_TAUTO_COUNT>
1

> <PUBCHEM_CONFORMER_ID>
0005758C00000001

> <PUBCHEM_MMFF94_ENERGY>
4.1277

> <PUBCHEM_FEATURE_SELFOVERLAP>
15.223

> <PUBCHEM_SHAPE_FINGERPRINT>
11062470 55 14851605479276073230
12932764 1 14548443671047809562
14325111 11 18338517443691786054
20719005 15 18410855473071261347
21293036 1 17967532384725519966
22485316 2 18411414007972479655

> <PUBCHEM_SHAPE_MULTIPOLES>
167.61
7.38
1
0.58
0.87
0.22
0
-1.58
0.02
-0.2
0
-0.02
-0.01
-0.01

> <PUBCHEM_SHAPE_SELFOVERLAP>
304.107

> <PUBCHEM_SHAPE_VOLUME>
107.5

> <PUBCHEM_COORDINATE_TYPE>
2
5
10

$$$$
