35821
  -OEChem-11232109263D

 36 36  0     1  0  0  0  0  0999 V2000
   -3.3019   -1.2170    0.9967 O   0  0  0  0  0  0  0  0  0  0  0  0
    1.7820   -0.9622   -0.3117 C   0  0  0  0  0  0  0  0  0  0  0  0
    0.5243   -0.0701   -0.6097 C   0  0  2  0  0  0  0  0  0  0  0  0
    2.2766   -0.6948    1.1289 C   0  0  0  0  0  0  0  0  0  0  0  0
    0.7359    1.3819   -0.1935 C   0  0  0  0  0  0  0  0  0  0  0  0
   -0.7693   -0.5902    0.0400 C   0  0  0  0  0  0  0  0  0  0  0  0
    2.5900    0.7785    1.3962 C   0  0  0  0  0  0  0  0  0  0  0  0
    2.9050   -0.6349   -1.3270 C   0  0  0  0  0  0  0  0  0  0  0  0
    1.4742   -2.4663   -0.4580 C   0  0  0  0  0  0  0  0  0  0  0  0
    1.6647    1.7377    0.7117 C   0  0  0  0  0  0  0  0  0  0  0  0
   -1.9724    0.2057   -0.4370 C   0  0  0  0  0  0  0  0  0  0  0  0
   -0.1198    2.4171   -0.8703 C   0  0  0  0  0  0  0  0  0  0  0  0
   -3.2647   -0.2940    0.1843 C   0  0  0  0  0  0  0  0  0  0  0  0
   -4.5247    0.4087   -0.2506 C   0  0  0  0  0  0  0  0  0  0  0  0
    0.3810   -0.0926   -1.7000 H   0  0  0  0  0  0  0  0  0  0  0  0
    3.1686   -1.2955    1.3488 H   0  0  0  0  0  0  0  0  0  0  0  0
    1.5117   -1.0233    1.8450 H   0  0  0  0  0  0  0  0  0  0  0  0
   -0.7015   -0.5533    1.1345 H   0  0  0  0  0  0  0  0  0  0  0  0
   -0.9424   -1.6374   -0.2297 H   0  0  0  0  0  0  0  0  0  0  0  0
    3.6130    0.9991    1.0681 H   0  0  0  0  0  0  0  0  0  0  0  0
    2.5637    0.9588    2.4771 H   0  0  0  0  0  0  0  0  0  0  0  0
    3.8135   -1.2064   -1.1047 H   0  0  0  0  0  0  0  0  0  0  0  0
    2.5945   -0.8922   -2.3463 H   0  0  0  0  0  0  0  0  0  0  0  0
    3.1788    0.4243   -1.3304 H   0  0  0  0  0  0  0  0  0  0  0  0
    1.0099   -2.6825   -1.4264 H   0  0  0  0  0  0  0  0  0  0  0  0
    2.3923   -3.0623   -0.3912 H   0  0  0  0  0  0  0  0  0  0  0  0
    0.8095   -2.8295    0.3328 H   0  0  0  0  0  0  0  0  0  0  0  0
    1.7889    2.7884    0.9624 H   0  0  0  0  0  0  0  0  0  0  0  0
   -1.9535    1.2312   -0.0828 H   0  0  0  0  0  0  0  0  0  0  0  0
   -2.0746    0.1658   -1.5258 H   0  0  0  0  0  0  0  0  0  0  0  0
   -0.8325    2.8766   -0.1796 H   0  0  0  0  0  0  0  0  0  0  0  0
   -0.6293    2.0388   -1.7607 H   0  0  0  0  0  0  0  0  0  0  0  0
    0.5231    3.2296   -1.2333 H   0  0  0  0  0  0  0  0  0  0  0  0
   -4.6502    0.3006   -1.3307 H   0  0  0  0  0  0  0  0  0  0  0  0
   -4.4673    1.4661    0.0192 H   0  0  0  0  0  0  0  0  0  0  0  0
   -5.3878   -0.0374    0.2513 H   0  0  0  0  0  0  0  0  0  0  0  0
  1 13  2  0  0  0  0
  2  3  1  0  0  0  0
  2  4  1  0  0  0  0
  2  8  1  0  0  0  0
  2  9  1  0  0  0  0
  3  5  1  0  0  0  0
  3  6  1  0  0  0  0
  3 15  1  0  0  0  0
  4  7  1  0  0  0  0
  4 16  1  0  0  0  0
  4 17  1  0  0  0  0
  5 10  2  0  0  0  0
  5 12  1  0  0  0  0
  6 11  1  0  0  0  0
  6 18  1  0  0  0  0
  6 19  1  0  0  0  0
  7 10  1  0  0  0  0
  7 20  1  0  0  0  0
  7 21  1  0  0  0  0
  8 22  1  0  0  0  0
  8 23  1  0  0  0  0
  8 24  1  0  0  0  0
  9 25  1  0  0  0  0
  9 26  1  0  0  0  0
  9 27  1  0  0  0  0
 10 28  1  0  0  0  0
 11 13  1  0  0  0  0
 11 29  1  0  0  0  0
 11 30  1  0  0  0  0
 12 31  1  0  0  0  0
 12 32  1  0  0  0  0
 12 33  1  0  0  0  0
 13 14  1  0  0  0  0
 14 34  1  0  0  0  0
 14 35  1  0  0  0  0
 14 36  1  0  0  0  0
M  END
> <PUBCHEM_COMPOUND_CID>
35821

> <PUBCHEM_CONFORMER_RMSD>
0.6

> <PUBCHEM_CONFORMER_DIVERSEORDER>
1
24
23
11
5
20
22
8
16
19
4
13
12
14
7
25
18
21
9
2
15
6
17
10
3

> <PUBCHEM_MMFF94_PARTIAL_CHARGES>
10
1 -0.57
10 -0.29
11 0.06
12 0.14
13 0.45
14 0.06
28 0.15
3 0.14
5 -0.28
7 0.14

> <PUBCHEM_EFFECTIVE_ROTOR_COUNT>
3.8

> <PUBCHEM_PHARMACOPHORE_FEATURES>
3
1 1 acceptor
3 2 8 9 hydrophobe
6 2 3 4 5 7 10 rings

> <PUBCHEM_HEAVY_ATOM_COUNT>
14

> <PUBCHEM_ATOM_DEF_STEREO_COUNT>
0

> <PUBCHEM_ATOM_UDEF_STEREO_COUNT>
1

> <PUBCHEM_BOND_DEF_STEREO_COUNT>
0

> <PUBCHEM_BOND_UDEF_STEREO_COUNT>
0

> <PUBCHEM_ISOTOPIC_ATOM_COUNT>
0

> <PUBCHEM_COMPONENT_COUNT>
1

> <PUBCHEM_CACTVS_TAUTO_COUNT>
3

> <PUBCHEM_CONFORMER_ID>
00008BED00000001

> <PUBCHEM_MMFF94_ENERGY>
33.4157

> <PUBCHEM_FEATURE_SELFOVERLAP>
15.223

> <PUBCHEM_SHAPE_FINGERPRINT>
10219947 1 18340760528805870248
11067466 332 18260547805780564678
11471102 22 18410004463898099761
12346645 6 18343013432452693100
12423570 1 11910305377314478148
12654215 9 18410572881355574588
12696612 119 18190173671207960589
12725867 57 18410579461414296796
13922767 16 18413100654741198729
14252887 29 18409450284473677219
15490181 8 17765426939277335246
15501101 241 18272368659300915100
15775835 57 17274535546266925849
15848700 24 18410284783966639677
161256 15 18342173328465369916
16945 1 18201428177761531884
18186145 218 18201443562746050667
19049666 15 18192983821244447797
20279233 1 18335698351934458315
20645477 70 18060135423460687343
20871998 22 18338795602821842922
21524375 3 17251753845675883813
21730867 7 17846216682727231003
22892500 29 17560791143574178033
2748010 2 17982714304291297116
3060560 45 18131351886302367550
581208 293 18272361005737622575
7364860 26 18059860587986366668
81228 2 18045219345423226445

> <PUBCHEM_SHAPE_MULTIPOLES>
282.24
5.91
2.14
1.19
7.76
0.28
-0.11
-1.05
-0.71
-1.03
0.29
-0.75
0.07
0.86

> <PUBCHEM_SHAPE_SELFOVERLAP>
556.93

> <PUBCHEM_SHAPE_VOLUME>
168.2

> <PUBCHEM_COORDINATE_TYPE>
2
5
10

$$$$
