35960
  -OEChem-11232108493D

 25 25  0     0  0  0  0  0  0999 V2000
   -0.2972    2.5820    0.3194 O   0  0  0  0  0  0  0  0  0  0  0  0
   -1.9573   -1.9099    0.2542 O   0  0  0  0  0  0  0  0  0  0  0  0
   -2.4319    0.8174    0.3450 O   0  0  0  0  0  0  0  0  0  0  0  0
    1.4613   -0.6188    0.1717 C   0  0  0  0  0  0  0  0  0  0  0  0
   -0.0812    1.2376    0.2760 C   0  0  0  0  0  0  0  0  0  0  0  0
   -0.9187   -1.0283    0.2423 C   0  0  0  0  0  0  0  0  0  0  0  0
   -1.1538    0.3458    0.2882 C   0  0  0  0  0  0  0  0  0  0  0  0
    1.2263    0.7553    0.2175 C   0  0  0  0  0  0  0  0  0  0  0  0
    0.3888   -1.5106    0.1840 C   0  0  0  0  0  0  0  0  0  0  0  0
    2.8247   -1.1218    0.1107 C   0  0  0  0  0  0  0  0  0  0  0  0
   -0.4428    3.2557   -0.9292 C   0  0  0  0  0  0  0  0  0  0  0  0
   -2.4954   -2.2944   -1.0095 C   0  0  0  0  0  0  0  0  0  0  0  0
    3.8772   -0.5101   -0.4703 C   0  0  0  0  0  0  0  0  0  0  0  0
    2.0449    1.4712    0.2236 H   0  0  0  0  0  0  0  0  0  0  0  0
    0.5612   -2.5842    0.1481 H   0  0  0  0  0  0  0  0  0  0  0  0
    2.9929   -2.0991    0.5581 H   0  0  0  0  0  0  0  0  0  0  0  0
   -2.4023    1.7872    0.4133 H   0  0  0  0  0  0  0  0  0  0  0  0
   -1.2773    2.8384   -1.5018 H   0  0  0  0  0  0  0  0  0  0  0  0
    0.4823    3.1859   -1.5101 H   0  0  0  0  0  0  0  0  0  0  0  0
   -0.6502    4.3101   -0.7273 H   0  0  0  0  0  0  0  0  0  0  0  0
   -1.7339   -2.7990   -1.6126 H   0  0  0  0  0  0  0  0  0  0  0  0
   -2.8825   -1.4221   -1.5456 H   0  0  0  0  0  0  0  0  0  0  0  0
   -3.3199   -2.9906   -0.8333 H   0  0  0  0  0  0  0  0  0  0  0  0
    4.8508   -0.9896   -0.4648 H   0  0  0  0  0  0  0  0  0  0  0  0
    3.7970    0.4511   -0.9652 H   0  0  0  0  0  0  0  0  0  0  0  0
  1  5  1  0  0  0  0
  1 11  1  0  0  0  0
  2  6  1  0  0  0  0
  2 12  1  0  0  0  0
  3  7  1  0  0  0  0
  3 17  1  0  0  0  0
  4  8  2  0  0  0  0
  4  9  1  0  0  0  0
  4 10  1  0  0  0  0
  5  7  2  0  0  0  0
  5  8  1  0  0  0  0
  6  7  1  0  0  0  0
  6  9  2  0  0  0  0
  8 14  1  0  0  0  0
  9 15  1  0  0  0  0
 10 13  2  0  0  0  0
 10 16  1  0  0  0  0
 11 18  1  0  0  0  0
 11 19  1  0  0  0  0
 11 20  1  0  0  0  0
 12 21  1  0  0  0  0
 12 22  1  0  0  0  0
 12 23  1  0  0  0  0
 13 24  1  0  0  0  0
 13 25  1  0  0  0  0
M  END
> <PUBCHEM_COMPOUND_CID>
35960

> <PUBCHEM_CONFORMER_RMSD>
0.6

> <PUBCHEM_CONFORMER_DIVERSEORDER>
1
2
3

> <PUBCHEM_MMFF94_PARTIAL_CHARGES>
19
1 -0.36
10 -0.18
11 0.28
12 0.28
13 -0.3
14 0.15
15 0.15
16 0.15
17 0.45
2 -0.36
24 0.15
25 0.15
3 -0.53
4 0.03
5 0.08
6 0.08
7 0.08
8 -0.15
9 -0.15

> <PUBCHEM_EFFECTIVE_ROTOR_COUNT>
3

> <PUBCHEM_PHARMACOPHORE_FEATURES>
5
1 1 acceptor
1 13 hydrophobe
1 2 acceptor
1 3 donor
6 4 5 6 7 8 9 rings

> <PUBCHEM_HEAVY_ATOM_COUNT>
13

> <PUBCHEM_ATOM_DEF_STEREO_COUNT>
0

> <PUBCHEM_ATOM_UDEF_STEREO_COUNT>
0

> <PUBCHEM_BOND_DEF_STEREO_COUNT>
0

> <PUBCHEM_BOND_UDEF_STEREO_COUNT>
0

> <PUBCHEM_ISOTOPIC_ATOM_COUNT>
0

> <PUBCHEM_COMPONENT_COUNT>
1

> <PUBCHEM_CACTVS_TAUTO_COUNT>
2

> <PUBCHEM_CONFORMER_ID>
00008C7800000001

> <PUBCHEM_MMFF94_ENERGY>
56.0414

> <PUBCHEM_FEATURE_SELFOVERLAP>
25.371

> <PUBCHEM_SHAPE_FINGERPRINT>
1 1 17040352415718659868
11206711 2 18408600387644752126
12138202 97 18052257298009211510
13024252 1 17240779345198394306
13380535 220 18339643455273144093
13380535 76 17253988650219199273
14817 1 16379231638808755208
15490181 8 16896517590059805521
15669948 3 18337672997508682082
16945 1 18267015068581757266
193761 8 18194966472516294617
19868273 325 18411139155824750966
20588541 1 18199755751655962163
20645477 70 17690545812613340423
20711985 344 18336252458154539490
20871998 184 18271253720076908271
21040471 1 17906168447838122674
21160774 45 18265891363440347117
21524375 3 17612593324168038096
2334 1 18266741461932326906
23402539 116 18270953540828619807
23419403 2 16903489997345168977
23552423 10 17906737256079586171
23559900 14 18200309906629606706
241688 4 18410570712418027058
2748010 2 18339916133950961402
3071541 158 18118676858038265277
3071541 250 18122075452785406374
5255222 1 18269830917849916306
7364860 26 17838055162501456400
81228 2 18410856525427803106

> <PUBCHEM_SHAPE_MULTIPOLES>
249.93
4.08
3.16
0.81
3.4
2.28
-0.15
-2.42
-0.74
-2.06
-0.87
-0.17
0.03
-0.29

> <PUBCHEM_SHAPE_SELFOVERLAP>
515.776

> <PUBCHEM_SHAPE_VOLUME>
145.9

> <PUBCHEM_COORDINATE_TYPE>
2
5
10

$$$$
