36225
  -OEChem-11232108543D

 25 25  0     0  0  0  0  0  0999 V2000
    0.7603    1.0611   -0.1791 N   0  0  0  0  0  0  0  0  0  0  0  0
   -0.4912   -1.4415   -0.3705 N   0  0  0  0  0  0  0  0  0  0  0  0
   -1.1960   -0.2969   -0.2711 C   0  0  0  0  0  0  0  0  0  0  0  0
   -2.6813   -0.4251   -0.2673 C   0  0  0  0  0  0  0  0  0  0  0  0
   -0.5813    0.9323   -0.1770 C   0  0  0  0  0  0  0  0  0  0  0  0
    1.4651   -0.0836   -0.2788 C   0  0  0  0  0  0  0  0  0  0  0  0
    2.9505    0.0200   -0.2819 C   0  0  0  0  0  0  0  0  0  0  0  0
    0.8503   -1.3127   -0.3729 C   0  0  0  0  0  0  0  0  0  0  0  0
   -3.2470   -0.5893    1.1413 C   0  0  0  0  0  0  0  0  0  0  0  0
   -1.3726    2.1907   -0.0665 C   0  0  0  0  0  0  0  0  0  0  0  0
    3.5432   -0.0550    1.1238 C   0  0  0  0  0  0  0  0  0  0  0  0
   -3.1658    0.4166   -0.7729 H   0  0  0  0  0  0  0  0  0  0  0  0
   -2.9580   -1.3101   -0.8549 H   0  0  0  0  0  0  0  0  0  0  0  0
    3.3847   -0.7688   -0.9080 H   0  0  0  0  0  0  0  0  0  0  0  0
    3.2447    0.9713   -0.7424 H   0  0  0  0  0  0  0  0  0  0  0  0
    1.4079   -2.2386   -0.4513 H   0  0  0  0  0  0  0  0  0  0  0  0
   -2.8310   -1.4768    1.6304 H   0  0  0  0  0  0  0  0  0  0  0  0
   -4.3347   -0.7044    1.0992 H   0  0  0  0  0  0  0  0  0  0  0  0
   -3.0215    0.2757    1.7724 H   0  0  0  0  0  0  0  0  0  0  0  0
   -2.0311    2.1728    0.8062 H   0  0  0  0  0  0  0  0  0  0  0  0
   -0.7070    3.0533    0.0503 H   0  0  0  0  0  0  0  0  0  0  0  0
   -1.9641    2.3595   -0.9717 H   0  0  0  0  0  0  0  0  0  0  0  0
    3.1557    0.7492    1.7584 H   0  0  0  0  0  0  0  0  0  0  0  0
    4.6328    0.0389    1.0804 H   0  0  0  0  0  0  0  0  0  0  0  0
    3.3015   -1.0092    1.6042 H   0  0  0  0  0  0  0  0  0  0  0  0
  1  5  2  0  0  0  0
  1  6  1  0  0  0  0
  2  3  2  0  0  0  0
  2  8  1  0  0  0  0
  3  4  1  0  0  0  0
  3  5  1  0  0  0  0
  4  9  1  0  0  0  0
  4 12  1  0  0  0  0
  4 13  1  0  0  0  0
  5 10  1  0  0  0  0
  6  7  1  0  0  0  0
  6  8  2  0  0  0  0
  7 11  1  0  0  0  0
  7 14  1  0  0  0  0
  7 15  1  0  0  0  0
  8 16  1  0  0  0  0
  9 17  1  0  0  0  0
  9 18  1  0  0  0  0
  9 19  1  0  0  0  0
 10 20  1  0  0  0  0
 10 21  1  0  0  0  0
 10 22  1  0  0  0  0
 11 23  1  0  0  0  0
 11 24  1  0  0  0  0
 11 25  1  0  0  0  0
M  END
> <PUBCHEM_COMPOUND_CID>
36225

> <PUBCHEM_CONFORMER_RMSD>
0.4

> <PUBCHEM_CONFORMER_DIVERSEORDER>
3
7
11
9
10
2
5
4
8
6
1

> <PUBCHEM_MMFF94_PARTIAL_CHARGES>
10
1 -0.62
10 0.14
16 0.15
2 -0.62
3 0.17
4 0.14
5 0.17
6 0.17
7 0.14
8 0.16

> <PUBCHEM_EFFECTIVE_ROTOR_COUNT>
2

> <PUBCHEM_PHARMACOPHORE_FEATURES>
5
1 1 acceptor
1 11 hydrophobe
1 2 acceptor
1 9 hydrophobe
6 1 2 3 5 6 8 rings

> <PUBCHEM_HEAVY_ATOM_COUNT>
11

> <PUBCHEM_ATOM_DEF_STEREO_COUNT>
0

> <PUBCHEM_ATOM_UDEF_STEREO_COUNT>
0

> <PUBCHEM_BOND_DEF_STEREO_COUNT>
0

> <PUBCHEM_BOND_UDEF_STEREO_COUNT>
0

> <PUBCHEM_ISOTOPIC_ATOM_COUNT>
0

> <PUBCHEM_COMPONENT_COUNT>
1

> <PUBCHEM_CACTVS_TAUTO_COUNT>
3

> <PUBCHEM_CONFORMER_ID>
00008D8100000003

> <PUBCHEM_MMFF94_ENERGY>
20.4232

> <PUBCHEM_FEATURE_SELFOVERLAP>
25.375

> <PUBCHEM_SHAPE_FINGERPRINT>
10219947 1 18411987995981159287
10857977 72 18410012143352346339
11132069 177 18202561795534746755
11769659 78 16370720469564129810
12932764 1 17774997964875168598
13380535 21 18053118223797499604
13380535 76 18121208784478202365
14325111 11 18340201891405802476
15219456 202 17988081063533120030
16945 1 18412263951761344990
193761 8 17907018374410474639
20645464 45 17775558733006198374
20653085 51 13686009964508059378
21040471 1 18051133592582808628
23402655 69 18197199370981082357
23552423 10 18117285756981267638
2748010 2 18124600786138944398
29004967 10 18335431179035202539
369184 2 17917700297599433046
5084963 1 18202291277267502126

> <PUBCHEM_SHAPE_MULTIPOLES>
216.41
4.99
1.59
0.9
1.63
0.67
0.26
-0.66
1.86
-0.73
-0.14
0.04
-0.12
0.2

> <PUBCHEM_SHAPE_SELFOVERLAP>
434.517

> <PUBCHEM_SHAPE_VOLUME>
128

> <PUBCHEM_COORDINATE_TYPE>
2
5
10

$$$$
