3656473
  -OEChem-11232109083D

 44 46  0     1  0  0  0  0  0999 V2000
    0.3636   -0.5023   -0.5726 O   0  0  0  0  0  0  0  0  0  0  0  0
   -1.0508   -0.0991    1.2043 O   0  0  0  0  0  0  0  0  0  0  0  0
    2.8346   -0.6127   -0.4637 C   0  0  1  0  0  0  0  0  0  0  0  0
    3.8518    0.0199    0.5340 C   0  0  0  0  0  0  0  0  0  0  0  0
    3.0553    1.3518    0.5608 C   0  0  2  0  0  0  0  0  0  0  0  0
    1.4824   -0.4573    0.2958 C   0  0  1  0  0  0  0  0  0  0  0  0
    2.8361    0.4003   -1.6435 C   0  0  0  0  0  0  0  0  0  0  0  0
    1.6269    0.9192    0.9710 C   0  0  0  0  0  0  0  0  0  0  0  0
    2.9761    1.7549   -0.9287 C   0  0  0  0  0  0  0  0  0  0  0  0
    3.1037   -2.0352   -0.9175 C   0  0  0  0  0  0  0  0  0  0  0  0
    3.9570   -0.6779    1.9053 C   0  0  0  0  0  0  0  0  0  0  0  0
    5.2969    0.1605    0.0156 C   0  0  0  0  0  0  0  0  0  0  0  0
   -0.8624   -0.3055    0.0131 C   0  0  0  0  0  0  0  0  0  0  0  0
   -1.9391   -0.3856   -1.0428 C   0  0  0  0  0  0  0  0  0  0  0  0
   -3.3211   -0.1439   -0.4928 C   0  0  0  0  0  0  0  0  0  0  0  0
   -4.0689   -1.2169   -0.0302 C   0  0  0  0  0  0  0  0  0  0  0  0
   -3.8246    1.1483   -0.4580 C   0  0  0  0  0  0  0  0  0  0  0  0
   -5.3481   -0.9928    0.4791 C   0  0  0  0  0  0  0  0  0  0  0  0
   -5.1038    1.3724    0.0510 C   0  0  0  0  0  0  0  0  0  0  0  0
   -5.8656    0.3020    0.5199 C   0  0  0  0  0  0  0  0  0  0  0  0
    3.4675    2.1370    1.1990 H   0  0  0  0  0  0  0  0  0  0  0  0
    1.3660   -1.2530    1.0421 H   0  0  0  0  0  0  0  0  0  0  0  0
    1.9270    0.3575   -2.2518 H   0  0  0  0  0  0  0  0  0  0  0  0
    3.6782    0.2349   -2.3249 H   0  0  0  0  0  0  0  0  0  0  0  0
    1.5562    0.8233    2.0600 H   0  0  0  0  0  0  0  0  0  0  0  0
    0.8800    1.6548    0.6543 H   0  0  0  0  0  0  0  0  0  0  0  0
    3.8842    2.2740   -1.2526 H   0  0  0  0  0  0  0  0  0  0  0  0
    2.1286    2.4152   -1.1408 H   0  0  0  0  0  0  0  0  0  0  0  0
    4.0720   -2.1162   -1.4220 H   0  0  0  0  0  0  0  0  0  0  0  0
    3.1090   -2.7290   -0.0707 H   0  0  0  0  0  0  0  0  0  0  0  0
    2.3341   -2.3732   -1.6197 H   0  0  0  0  0  0  0  0  0  0  0  0
    4.4376   -1.6576    1.8039 H   0  0  0  0  0  0  0  0  0  0  0  0
    3.0030   -0.8466    2.4084 H   0  0  0  0  0  0  0  0  0  0  0  0
    4.5677   -0.0780    2.5902 H   0  0  0  0  0  0  0  0  0  0  0  0
    5.7804   -0.8208   -0.0515 H   0  0  0  0  0  0  0  0  0  0  0  0
    5.8893    0.7770    0.7017 H   0  0  0  0  0  0  0  0  0  0  0  0
    5.3824    0.6193   -0.9715 H   0  0  0  0  0  0  0  0  0  0  0  0
   -1.8956   -1.3770   -1.5096 H   0  0  0  0  0  0  0  0  0  0  0  0
   -1.7190    0.3545   -1.8217 H   0  0  0  0  0  0  0  0  0  0  0  0
   -3.6741   -2.2286   -0.0556 H   0  0  0  0  0  0  0  0  0  0  0  0
   -3.2385    1.9890   -0.8183 H   0  0  0  0  0  0  0  0  0  0  0  0
   -5.9409   -1.8262    0.8444 H   0  0  0  0  0  0  0  0  0  0  0  0
   -5.5066    2.3806    0.0831 H   0  0  0  0  0  0  0  0  0  0  0  0
   -6.8614    0.4767    0.9166 H   0  0  0  0  0  0  0  0  0  0  0  0
  1  6  1  0  0  0  0
  1 13  1  0  0  0  0
  2 13  2  0  0  0  0
  3  4  1  0  0  0  0
  3  6  1  0  0  0  0
  3  7  1  0  0  0  0
  3 10  1  0  0  0  0
  4  5  1  0  0  0  0
  4 11  1  0  0  0  0
  4 12  1  0  0  0  0
  5  8  1  0  0  0  0
  5  9  1  0  0  0  0
  5 21  1  0  0  0  0
  6  8  1  0  0  0  0
  6 22  1  0  0  0  0
  7  9  1  0  0  0  0
  7 23  1  0  0  0  0
  7 24  1  0  0  0  0
  8 25  1  0  0  0  0
  8 26  1  0  0  0  0
  9 27  1  0  0  0  0
  9 28  1  0  0  0  0
 10 29  1  0  0  0  0
 10 30  1  0  0  0  0
 10 31  1  0  0  0  0
 11 32  1  0  0  0  0
 11 33  1  0  0  0  0
 11 34  1  0  0  0  0
 12 35  1  0  0  0  0
 12 36  1  0  0  0  0
 12 37  1  0  0  0  0
 13 14  1  0  0  0  0
 14 15  1  0  0  0  0
 14 38  1  0  0  0  0
 14 39  1  0  0  0  0
 15 16  2  0  0  0  0
 15 17  1  0  0  0  0
 16 18  1  0  0  0  0
 16 40  1  0  0  0  0
 17 19  2  0  0  0  0
 17 41  1  0  0  0  0
 18 20  2  0  0  0  0
 18 42  1  0  0  0  0
 19 20  1  0  0  0  0
 19 43  1  0  0  0  0
 20 44  1  0  0  0  0
M  END
> <PUBCHEM_COMPOUND_CID>
3656473

> <PUBCHEM_CONFORMER_RMSD>
0.8

> <PUBCHEM_CONFORMER_DIVERSEORDER>
1
30
22
24
20
44
17
36
52
7
49
16
15
12
3
9
11
38
58
33
6
54
18
25
53
40
4
39
37
42
51
57
56
55
47
34
41
43
48
45
27
21
26
46
28
19
31
8
35
14
29
32
13
23
2
10
50
5

> <PUBCHEM_MMFF94_PARTIAL_CHARGES>
16
1 -0.43
13 0.66
14 0.2
15 -0.14
16 -0.15
17 -0.15
18 -0.15
19 -0.15
2 -0.57
20 -0.15
40 0.15
41 0.15
42 0.15
43 0.15
44 0.15
6 0.28

> <PUBCHEM_EFFECTIVE_ROTOR_COUNT>
5

> <PUBCHEM_PHARMACOPHORE_FEATURES>
4
1 2 acceptor
3 4 11 12 hydrophobe
6 15 16 17 18 19 20 rings
7 3 4 5 6 7 8 9 rings

> <PUBCHEM_HEAVY_ATOM_COUNT>
20

> <PUBCHEM_ATOM_DEF_STEREO_COUNT>
0

> <PUBCHEM_ATOM_UDEF_STEREO_COUNT>
3

> <PUBCHEM_BOND_DEF_STEREO_COUNT>
0

> <PUBCHEM_BOND_UDEF_STEREO_COUNT>
0

> <PUBCHEM_ISOTOPIC_ATOM_COUNT>
0

> <PUBCHEM_COMPONENT_COUNT>
1

> <PUBCHEM_CACTVS_TAUTO_COUNT>
1

> <PUBCHEM_CONFORMER_ID>
0037CB1900000001

> <PUBCHEM_MMFF94_ENERGY>
76.5314

> <PUBCHEM_FEATURE_SELFOVERLAP>
20.297

> <PUBCHEM_SHAPE_FINGERPRINT>
10354089 29 17967532380810516700
10366900 7 12973882598277803773
11089746 13 14979952579793546794
11405975 8 18408322164337891195
12107183 9 17393307833320998561
12236239 1 18187364328751919176
12616971 3 17967813860213810279
128620 24 16845576426213060841
12916748 109 17418380190437602033
13167823 11 17968090932728093779
13464513 79 12829207763542262710
13533116 47 17131836408945958894
13675066 3 18130783460613361103
14341114 176 18335423443661926369
14849402 71 17677617630587727932
15142383 8 18187639155029838389
15239154 128 18413673509079212589
15375358 24 15554443028528993382
15788980 27 18130783464850260695
17844677 252 17894917326003792701
18186145 218 17967809431823070255
18222031 100 14129059231588023623
19050596 39 18187080659373889967
200 152 12468635024051535519
20645477 56 18343297072525197485
20645477 70 17418100879607775638
21033648 29 17774709892966075537
22646028 1 13767922425494381007
22854114 59 16732982029224623189
23402539 116 17967244300158027445
23559900 14 18272374131131818766
29717793 49 14273451462097300931
300161 21 12391513070639328727
34934 24 16343409691925958910
3545911 37 18060138743032517783
4214541 1 18411699890002068565
5104073 3 18261111898316743153
5281201 14 18409453561565366117
5283173 99 9222965742367437407
542803 24 18261111889278213652
59755656 215 18060144198152875510
633830 44 18260546723522802175
7495541 125 18260548973848275513
77779 3 18411984663476817343
8272917 22 18272373049063680974
960060 61 11672066362729249896

> <PUBCHEM_SHAPE_MULTIPOLES>
399.85
13.16
1.5
1.29
13.27
0.03
-0.11
0.57
-1.69
-0.3
0.23
-1.23
-0.06
0.02

> <PUBCHEM_SHAPE_SELFOVERLAP>
858.272

> <PUBCHEM_SHAPE_VOLUME>
226

> <PUBCHEM_COORDINATE_TYPE>
2
5
10

$$$$
