3662099
  -OEChem-11232109473D

 36 36  0     0  0  0  0  0  0999 V2000
   -2.5394   -0.3102    0.1959 O   0  0  0  0  0  0  0  0  0  0  0  0
   -4.1225    1.1968   -0.5435 O   0  0  0  0  0  0  0  0  0  0  0  0
    2.3311    0.3131    0.3304 C   0  0  0  0  0  0  0  0  0  0  0  0
    2.5587   -1.0100   -0.4131 C   0  0  0  0  0  0  0  0  0  0  0  0
    3.4800    1.2947    0.0630 C   0  0  0  0  0  0  0  0  0  0  0  0
    3.9167   -1.6205   -0.0743 C   0  0  0  0  0  0  0  0  0  0  0  0
    4.8366    0.6804    0.4008 C   0  0  0  0  0  0  0  0  0  0  0  0
    5.0555   -0.6390   -0.3331 C   0  0  0  0  0  0  0  0  0  0  0  0
    0.9910    0.9305   -0.0651 C   0  0  0  0  0  0  0  0  0  0  0  0
   -0.1634   -0.0170    0.2354 C   0  0  0  0  0  0  0  0  0  0  0  0
   -1.5040    0.6105   -0.1190 C   0  0  0  0  0  0  0  0  0  0  0  0
   -3.8166    0.1119   -0.0681 C   0  0  0  0  0  0  0  0  0  0  0  0
   -4.7911   -0.9752    0.3199 C   0  0  0  0  0  0  0  0  0  0  0  0
   -6.2324   -0.5663    0.0709 C   0  0  0  0  0  0  0  0  0  0  0  0
    2.3112    0.1020    1.4087 H   0  0  0  0  0  0  0  0  0  0  0  0
    2.4906   -0.8513   -1.4967 H   0  0  0  0  0  0  0  0  0  0  0  0
    1.8034   -1.7548   -0.1451 H   0  0  0  0  0  0  0  0  0  0  0  0
    3.3391    2.2064    0.6557 H   0  0  0  0  0  0  0  0  0  0  0  0
    3.4748    1.5976   -0.9920 H   0  0  0  0  0  0  0  0  0  0  0  0
    4.0715   -2.5284   -0.6683 H   0  0  0  0  0  0  0  0  0  0  0  0
    3.9285   -1.9229    0.9802 H   0  0  0  0  0  0  0  0  0  0  0  0
    4.9012    0.5115    1.4827 H   0  0  0  0  0  0  0  0  0  0  0  0
    5.6349    1.3841    0.1395 H   0  0  0  0  0  0  0  0  0  0  0  0
    0.8458    1.8689    0.4845 H   0  0  0  0  0  0  0  0  0  0  0  0
    0.9913    1.1845   -1.1327 H   0  0  0  0  0  0  0  0  0  0  0  0
    6.0055   -1.0841   -0.0167 H   0  0  0  0  0  0  0  0  0  0  0  0
    5.1347   -0.4483   -1.4105 H   0  0  0  0  0  0  0  0  0  0  0  0
   -0.0864   -0.9474   -0.3361 H   0  0  0  0  0  0  0  0  0  0  0  0
   -0.1620   -0.3046    1.2940 H   0  0  0  0  0  0  0  0  0  0  0  0
   -1.6505    1.5325    0.4561 H   0  0  0  0  0  0  0  0  0  0  0  0
   -1.5378    0.8463   -1.1893 H   0  0  0  0  0  0  0  0  0  0  0  0
   -4.5612   -1.8713   -0.2659 H   0  0  0  0  0  0  0  0  0  0  0  0
   -4.6564   -1.1974    1.3838 H   0  0  0  0  0  0  0  0  0  0  0  0
   -6.4003   -0.3425   -0.9879 H   0  0  0  0  0  0  0  0  0  0  0  0
   -6.9131   -1.3720    0.3625 H   0  0  0  0  0  0  0  0  0  0  0  0
   -6.4928    0.3276    0.6473 H   0  0  0  0  0  0  0  0  0  0  0  0
  1 11  1  0  0  0  0
  1 12  1  0  0  0  0
  2 12  2  0  0  0  0
  3  4  1  0  0  0  0
  3  5  1  0  0  0  0
  3  9  1  0  0  0  0
  3 15  1  0  0  0  0
  4  6  1  0  0  0  0
  4 16  1  0  0  0  0
  4 17  1  0  0  0  0
  5  7  1  0  0  0  0
  5 18  1  0  0  0  0
  5 19  1  0  0  0  0
  6  8  1  0  0  0  0
  6 20  1  0  0  0  0
  6 21  1  0  0  0  0
  7  8  1  0  0  0  0
  7 22  1  0  0  0  0
  7 23  1  0  0  0  0
  8 26  1  0  0  0  0
  8 27  1  0  0  0  0
  9 10  1  0  0  0  0
  9 24  1  0  0  0  0
  9 25  1  0  0  0  0
 10 11  1  0  0  0  0
 10 28  1  0  0  0  0
 10 29  1  0  0  0  0
 11 30  1  0  0  0  0
 11 31  1  0  0  0  0
 12 13  1  0  0  0  0
 13 14  1  0  0  0  0
 13 32  1  0  0  0  0
 13 33  1  0  0  0  0
 14 34  1  0  0  0  0
 14 35  1  0  0  0  0
 14 36  1  0  0  0  0
M  END
> <PUBCHEM_COMPOUND_CID>
3662099

> <PUBCHEM_CONFORMER_RMSD>
0.8

> <PUBCHEM_CONFORMER_DIVERSEORDER>
1
25
53
65
61
110
95
70
77
78
123
48
34
57
13
38
64
12
90
101
44
115
102
19
21
109
8
4
24
113
43
107
118
98
35
54
72
37
40
105
9
119
124
23
63
82
7
26
66
97
69
10
46
100
122
91
104
20
93
27
11
96
68
18
88
99
58
84
117
89
116
56
39
121
108
81
106
111
3
30
22
67
86
60
15
45
32
5
103
41
92
52
36
2
50
62
83
47
6
29
120
114
94
85
112
79
14
71
17
55
76
16
73
59
33
31
51
42
87
28
75
49
74
80

> <PUBCHEM_MMFF94_PARTIAL_CHARGES>
5
1 -0.43
11 0.28
12 0.66
13 0.06
2 -0.57

> <PUBCHEM_EFFECTIVE_ROTOR_COUNT>
7.2

> <PUBCHEM_PHARMACOPHORE_FEATURES>
3
1 14 hydrophobe
1 2 acceptor
6 3 4 5 6 7 8 rings

> <PUBCHEM_HEAVY_ATOM_COUNT>
14

> <PUBCHEM_ATOM_DEF_STEREO_COUNT>
0

> <PUBCHEM_ATOM_UDEF_STEREO_COUNT>
0

> <PUBCHEM_BOND_DEF_STEREO_COUNT>
0

> <PUBCHEM_BOND_UDEF_STEREO_COUNT>
0

> <PUBCHEM_ISOTOPIC_ATOM_COUNT>
0

> <PUBCHEM_COMPONENT_COUNT>
1

> <PUBCHEM_CACTVS_TAUTO_COUNT>
1

> <PUBCHEM_CONFORMER_ID>
0037E11300000001

> <PUBCHEM_MMFF94_ENERGY>
7.8494

> <PUBCHEM_FEATURE_SELFOVERLAP>
15.223

> <PUBCHEM_SHAPE_FINGERPRINT>
11287383 113 18335139816690309752
114248 4 18333731325204891283
13167823 11 18342454850576028959
13533116 47 17561368353003845926
13955234 65 18201432610763835394
14123238 8 18333732429053677773
1420 363 18113623400034808291
14251718 22 18186803590611592837
14252887 29 17775293733561108078
14455015 7 18409174311619286315
15477762 27 18410858733700291460
17834072 33 18342457066583663028
17834076 25 14692574325205881367
17844677 252 18411144627618724557
200 152 18130787845463779577
20279233 1 18113625594320010986
20645477 70 18341333305966601510
21267235 1 18272658918145155182
22485316 2 18411416206821486526
23402539 116 17821440253342017653
23402655 69 18342455928871107692
23557571 272 17749385944917330085
23559900 14 18263076768640255337
239999 70 18412830175197536878
33824 294 18410854344154570378
3545911 37 18413389860532298656
42 15 18342460335312270541
4214541 1 18410575059336718085
42788 4 18411700993539722777
465052 167 18202569449842059254
4990 188 18186802461246236218
5104073 3 18270961245678261016
522135 26 18413671309981863592
5374978 207 17060617798251151312
542803 24 13767924611326799125
57483677 66 18412823599127755463
77779 3 18410575071852244429

> <PUBCHEM_SHAPE_MULTIPOLES>
276.37
14.34
1.34
0.68
13.05
0.14
0
2.79
0.15
-0.95
-0.06
-0.05
0
0.59

> <PUBCHEM_SHAPE_SELFOVERLAP>
529.762

> <PUBCHEM_SHAPE_VOLUME>
167.7

> <PUBCHEM_COORDINATE_TYPE>
2
5
10

$$$$
