37066
  -OEChem-11232109413D

 29 28  0     0  0  0  0  0  0999 V2000
   -1.7457   -2.0241   -0.5021 O   0  0  0  0  0  0  0  0  0  0  0  0
    2.5790    0.0259   -0.2995 C   0  0  0  0  0  0  0  0  0  0  0  0
    1.6076   -0.3089    0.8471 C   0  0  0  0  0  0  0  0  0  0  0  0
   -2.1219    0.8774    0.1798 C   0  0  0  0  0  0  0  0  0  0  0  0
   -0.8340    0.0787    0.2153 C   0  0  0  0  0  0  0  0  0  0  0  0
    0.3208    0.4704    0.7867 C   0  0  0  0  0  0  0  0  0  0  0  0
    2.9044    1.5201   -0.3673 C   0  0  0  0  0  0  0  0  0  0  0  0
    3.8713   -0.7777   -0.1378 C   0  0  0  0  0  0  0  0  0  0  0  0
   -2.5417    1.2290   -1.2495 C   0  0  0  0  0  0  0  0  0  0  0  0
   -3.2594    0.1850    0.9363 C   0  0  0  0  0  0  0  0  0  0  0  0
   -0.7803   -1.2760   -0.4090 C   0  0  0  0  0  0  0  0  0  0  0  0
    2.1219   -0.2622   -1.2544 H   0  0  0  0  0  0  0  0  0  0  0  0
    1.4329   -1.3893    0.9036 H   0  0  0  0  0  0  0  0  0  0  0  0
    2.0855   -0.0624    1.8056 H   0  0  0  0  0  0  0  0  0  0  0  0
   -1.9383    1.8297    0.6967 H   0  0  0  0  0  0  0  0  0  0  0  0
    0.3479    1.4508    1.2594 H   0  0  0  0  0  0  0  0  0  0  0  0
    3.6443    1.7194   -1.1503 H   0  0  0  0  0  0  0  0  0  0  0  0
    2.0164    2.1146   -0.6045 H   0  0  0  0  0  0  0  0  0  0  0  0
    3.3144    1.8807    0.5823 H   0  0  0  0  0  0  0  0  0  0  0  0
    4.5578   -0.5824   -0.9685 H   0  0  0  0  0  0  0  0  0  0  0  0
    3.6612   -1.8524   -0.1254 H   0  0  0  0  0  0  0  0  0  0  0  0
    4.3860   -0.5214    0.7944 H   0  0  0  0  0  0  0  0  0  0  0  0
   -1.7372    1.7539   -1.7763 H   0  0  0  0  0  0  0  0  0  0  0  0
   -3.4196    1.8842   -1.2425 H   0  0  0  0  0  0  0  0  0  0  0  0
   -2.7974    0.3348   -1.8282 H   0  0  0  0  0  0  0  0  0  0  0  0
   -4.1005    0.8755    1.0656 H   0  0  0  0  0  0  0  0  0  0  0  0
   -3.6424   -0.6903    0.4031 H   0  0  0  0  0  0  0  0  0  0  0  0
   -2.9362   -0.1332    1.9334 H   0  0  0  0  0  0  0  0  0  0  0  0
    0.1939   -1.6003   -0.8038 H   0  0  0  0  0  0  0  0  0  0  0  0
  1 11  2  0  0  0  0
  2  3  1  0  0  0  0
  2  7  1  0  0  0  0
  2  8  1  0  0  0  0
  2 12  1  0  0  0  0
  3  6  1  0  0  0  0
  3 13  1  0  0  0  0
  3 14  1  0  0  0  0
  4  5  1  0  0  0  0
  4  9  1  0  0  0  0
  4 10  1  0  0  0  0
  4 15  1  0  0  0  0
  5  6  2  3  0  0  0
  5 11  1  0  0  0  0
  6 16  1  0  0  0  0
  7 17  1  0  0  0  0
  7 18  1  0  0  0  0
  7 19  1  0  0  0  0
  8 20  1  0  0  0  0
  8 21  1  0  0  0  0
  8 22  1  0  0  0  0
  9 23  1  0  0  0  0
  9 24  1  0  0  0  0
  9 25  1  0  0  0  0
 10 26  1  0  0  0  0
 10 27  1  0  0  0  0
 10 28  1  0  0  0  0
 11 29  1  0  0  0  0
M  END
> <PUBCHEM_COMPOUND_CID>
37066

> <PUBCHEM_CONFORMER_RMSD>
0.6

> <PUBCHEM_CONFORMER_DIVERSEORDER>
1
13
9
11
7
12
5
10
2
3
6
4
8

> <PUBCHEM_MMFF94_PARTIAL_CHARGES>
8
1 -0.57
11 0.5
16 0.15
29 0.06
3 0.14
4 0.14
5 -0.12
6 -0.29

> <PUBCHEM_EFFECTIVE_ROTOR_COUNT>
4

> <PUBCHEM_PHARMACOPHORE_FEATURES>
3
1 1 acceptor
3 2 7 8 hydrophobe
3 4 9 10 hydrophobe

> <PUBCHEM_HEAVY_ATOM_COUNT>
11

> <PUBCHEM_ATOM_DEF_STEREO_COUNT>
0

> <PUBCHEM_ATOM_UDEF_STEREO_COUNT>
0

> <PUBCHEM_BOND_DEF_STEREO_COUNT>
0

> <PUBCHEM_BOND_UDEF_STEREO_COUNT>
1

> <PUBCHEM_ISOTOPIC_ATOM_COUNT>
0

> <PUBCHEM_COMPONENT_COUNT>
1

> <PUBCHEM_CACTVS_TAUTO_COUNT>
1

> <PUBCHEM_CONFORMER_ID>
000090CA00000001

> <PUBCHEM_MMFF94_ENERGY>
14.3809

> <PUBCHEM_FEATURE_SELFOVERLAP>
15.223

> <PUBCHEM_SHAPE_FINGERPRINT>
10857977 72 12035737504501566465
10922523 26 18260831462611139972
11062470 55 11311770644402764649
11715629 250 18260265295753970916
12716758 59 18272081708277780098
12932764 1 18187079559725118728
14325111 11 18410859849600744609
15310529 11 17822007584172500473
15775835 57 18334867155350695300
18186145 218 18412267233559457576
18619055 16 18342738511928275120
20201158 50 17489309651001207086
20279233 1 15267347318744879004
20645476 183 18335129865362270375
20645477 56 18410851088131490672
20653085 51 18187367618712835096
21028194 46 18040442066041843072
23235685 24 18059858333376449745
23402539 116 17845929624340813584
23552423 10 18409725205515144090
23559900 14 17988922263628640842
3248919 1 17775567541889235408
58051976 100 18410862083253023790
81228 2 17981307191306219083
93112 12 18411418414851349756
9939556 21 18410576201850422124

> <PUBCHEM_SHAPE_MULTIPOLES>
220.51
6.01
1.55
1.02
2.84
0.26
0.01
-0.7
0.33
-0.23
0.46
-0.51
-0.11
0

> <PUBCHEM_SHAPE_SELFOVERLAP>
410.166

> <PUBCHEM_SHAPE_VOLUME>
139.1

> <PUBCHEM_COORDINATE_TYPE>
2
5
10

$$$$
