3734338
  -OEChem-11232108563D

 19 19  0     0  0  0  0  0  0999 V2000
    0.9919   -2.3793   -0.1061 S   0  0  0  0  0  0  0  0  0  0  0  0
    0.4340    0.3461   -0.2666 C   0  0  0  0  0  0  0  0  0  0  0  0
    1.8827    0.5979   -0.5382 C   0  0  0  0  0  0  0  0  0  0  0  0
   -0.0671   -0.9392   -0.0601 C   0  0  0  0  0  0  0  0  0  0  0  0
   -0.4245    1.4447   -0.2228 C   0  0  0  0  0  0  0  0  0  0  0  0
    2.6786    0.8251    0.7428 C   0  0  0  0  0  0  0  0  0  0  0  0
   -1.4266   -1.1259    0.1900 C   0  0  0  0  0  0  0  0  0  0  0  0
   -1.7840    1.2580    0.0274 C   0  0  0  0  0  0  0  0  0  0  0  0
   -2.2850   -0.0273    0.2338 C   0  0  0  0  0  0  0  0  0  0  0  0
    2.3361   -0.2038   -1.1307 H   0  0  0  0  0  0  0  0  0  0  0  0
    1.9834    1.4892   -1.1722 H   0  0  0  0  0  0  0  0  0  0  0  0
   -0.0499    2.4531   -0.3789 H   0  0  0  0  0  0  0  0  0  0  0  0
    2.2919    1.6835    1.3027 H   0  0  0  0  0  0  0  0  0  0  0  0
    3.7282    1.0237    0.5035 H   0  0  0  0  0  0  0  0  0  0  0  0
    2.6412   -0.0484    1.4015 H   0  0  0  0  0  0  0  0  0  0  0  0
   -1.8426   -2.1172    0.3525 H   0  0  0  0  0  0  0  0  0  0  0  0
   -2.4524    2.1133    0.0620 H   0  0  0  0  0  0  0  0  0  0  0  0
   -3.3437   -0.1723    0.4283 H   0  0  0  0  0  0  0  0  0  0  0  0
    0.1563   -3.2271    0.5120 H   0  0  0  0  0  0  0  0  0  0  0  0
  1  4  1  0  0  0  0
  1 19  1  0  0  0  0
  2  3  1  0  0  0  0
  2  4  1  0  0  0  0
  2  5  2  0  0  0  0
  3  6  1  0  0  0  0
  3 10  1  0  0  0  0
  3 11  1  0  0  0  0
  4  7  2  0  0  0  0
  5  8  1  0  0  0  0
  5 12  1  0  0  0  0
  6 13  1  0  0  0  0
  6 14  1  0  0  0  0
  6 15  1  0  0  0  0
  7  9  1  0  0  0  0
  7 16  1  0  0  0  0
  8  9  2  0  0  0  0
  8 17  1  0  0  0  0
  9 18  1  0  0  0  0
M  END
> <PUBCHEM_COMPOUND_CID>
3734338

> <PUBCHEM_CONFORMER_RMSD>
0.4

> <PUBCHEM_CONFORMER_DIVERSEORDER>
1
3
2

> <PUBCHEM_MMFF94_PARTIAL_CHARGES>
13
1 -0.28
12 0.15
16 0.15
17 0.15
18 0.15
19 0.18
2 -0.14
3 0.14
4 0.1
5 -0.15
7 -0.15
8 -0.15
9 -0.15

> <PUBCHEM_EFFECTIVE_ROTOR_COUNT>
1

> <PUBCHEM_PHARMACOPHORE_FEATURES>
2
1 6 hydrophobe
6 2 4 5 7 8 9 rings

> <PUBCHEM_HEAVY_ATOM_COUNT>
9

> <PUBCHEM_ATOM_DEF_STEREO_COUNT>
0

> <PUBCHEM_ATOM_UDEF_STEREO_COUNT>
0

> <PUBCHEM_BOND_DEF_STEREO_COUNT>
0

> <PUBCHEM_BOND_UDEF_STEREO_COUNT>
0

> <PUBCHEM_ISOTOPIC_ATOM_COUNT>
0

> <PUBCHEM_COMPONENT_COUNT>
1

> <PUBCHEM_CACTVS_TAUTO_COUNT>
3

> <PUBCHEM_CONFORMER_ID>
0038FB4200000001

> <PUBCHEM_MMFF94_ENERGY>
20.5896

> <PUBCHEM_FEATURE_SELFOVERLAP>
10.148

> <PUBCHEM_SHAPE_FINGERPRINT>
10857977 72 18267020737791031433
161256 15 18265907847361168847
16945 1 18409455807849124829
18185500 45 16968301998518387902
20645464 45 17988077919664635920
20871998 184 17910399712184729462
21040471 1 18409737243933785501
23211744 41 17988644150677529292
23552423 10 18189066312495684342
241688 4 17829337886381925273
2748010 2 18191594055758287799
369184 2 18130219462503374752
5084963 1 18129677398954704364
54338 74 17762878254065192114

> <PUBCHEM_SHAPE_MULTIPOLES>
189.07
3.1
2.11
0.74
0.46
1.14
-0.02
-0.86
-0.52
0.51
0.05
0.21
-0.06
0.21

> <PUBCHEM_SHAPE_SELFOVERLAP>
374.678

> <PUBCHEM_SHAPE_VOLUME>
113

> <PUBCHEM_COORDINATE_TYPE>
2
5
10

$$$$
