3820754
  -OEChem-11232108443D

 38 39  0     1  0  0  0  0  0999 V2000
    0.5382   -1.2931    0.9517 S   0  0  0  0  0  0  0  0  0  0  0  0
    1.0166   -0.7862    2.2246 O   0  0  0  0  0  0  0  0  0  0  0  0
    0.2789   -2.7131    0.8010 O   0  0  0  0  0  0  0  0  0  0  0  0
    4.3193    1.5930   -0.7190 O   0  0  0  0  0  0  0  0  0  0  0  0
   -4.0038   -0.9646   -1.3553 O   0  0  0  0  0  0  0  0  0  0  0  0
   -4.4783    1.5543   -0.2794 O   0  0  0  0  0  0  0  0  0  0  0  0
    1.5899   -0.7642   -0.3085 N   0  0  2  0  0  0  0  0  0  0  0  0
    2.2099    0.5787   -0.1752 C   0  0  0  0  0  0  0  0  0  0  0  0
   -0.9695   -0.4415    0.5798 C   0  0  0  0  0  0  0  0  0  0  0  0
    1.1952   -1.0571   -1.7098 C   0  0  0  0  0  0  0  0  0  0  0  0
    3.7095    0.5106   -0.2042 C   0  0  0  0  0  0  0  0  0  0  0  0
   -1.8974   -1.0463   -0.2478 C   0  0  0  0  0  0  0  0  0  0  0  0
   -1.1866    0.8104    1.1249 C   0  0  0  0  0  0  0  0  0  0  0  0
   -3.0846   -0.3753   -0.5406 C   0  0  0  0  0  0  0  0  0  0  0  0
   -3.3230    0.8886   -0.0005 C   0  0  0  0  0  0  0  0  0  0  0  0
   -2.3740    1.4814    0.8323 C   0  0  0  0  0  0  0  0  0  0  0  0
    4.5832   -0.4439    0.1932 C   0  0  0  0  0  0  0  0  0  0  0  0
    5.8640    0.0835   -0.0972 C   0  0  0  0  0  0  0  0  0  0  0  0
    5.6496    1.3243   -0.6507 C   0  0  0  0  0  0  0  0  0  0  0  0
   -4.9934   -1.7810   -0.7321 C   0  0  0  0  0  0  0  0  0  0  0  0
   -4.6437    2.8413    0.3128 C   0  0  0  0  0  0  0  0  0  0  0  0
    1.9205    1.0542    0.7677 H   0  0  0  0  0  0  0  0  0  0  0  0
    1.8476    1.2424   -0.9700 H   0  0  0  0  0  0  0  0  0  0  0  0
    2.0731   -0.9899   -2.3605 H   0  0  0  0  0  0  0  0  0  0  0  0
    0.4398   -0.3503   -2.0639 H   0  0  0  0  0  0  0  0  0  0  0  0
    0.8103   -2.0773   -1.7939 H   0  0  0  0  0  0  0  0  0  0  0  0
   -1.7211   -2.0273   -0.6792 H   0  0  0  0  0  0  0  0  0  0  0  0
   -0.4580    1.2898    1.7711 H   0  0  0  0  0  0  0  0  0  0  0  0
   -2.4904    2.4597    1.2857 H   0  0  0  0  0  0  0  0  0  0  0  0
    4.3542   -1.4015    0.6381 H   0  0  0  0  0  0  0  0  0  0  0  0
    6.8235   -0.3821    0.0758 H   0  0  0  0  0  0  0  0  0  0  0  0
    6.3027    2.0980   -1.0272 H   0  0  0  0  0  0  0  0  0  0  0  0
   -4.5244   -2.6243   -0.2153 H   0  0  0  0  0  0  0  0  0  0  0  0
   -5.6548   -2.1717   -1.5103 H   0  0  0  0  0  0  0  0  0  0  0  0
   -5.5905   -1.1933   -0.0277 H   0  0  0  0  0  0  0  0  0  0  0  0
   -3.8872    3.5493   -0.0424 H   0  0  0  0  0  0  0  0  0  0  0  0
   -4.6783    2.7812    1.4059 H   0  0  0  0  0  0  0  0  0  0  0  0
   -5.6158    3.2242   -0.0152 H   0  0  0  0  0  0  0  0  0  0  0  0
  1  2  2  0  0  0  0
  1  3  2  0  0  0  0
  1  7  1  0  0  0  0
  1  9  1  0  0  0  0
  4 11  1  0  0  0  0
  4 19  1  0  0  0  0
  5 14  1  0  0  0  0
  5 20  1  0  0  0  0
  6 15  1  0  0  0  0
  6 21  1  0  0  0  0
  7  8  1  0  0  0  0
  7 10  1  0  0  0  0
  8 11  1  0  0  0  0
  8 22  1  0  0  0  0
  8 23  1  0  0  0  0
  9 12  2  0  0  0  0
  9 13  1  0  0  0  0
 10 24  1  0  0  0  0
 10 25  1  0  0  0  0
 10 26  1  0  0  0  0
 11 17  2  0  0  0  0
 12 14  1  0  0  0  0
 12 27  1  0  0  0  0
 13 16  2  0  0  0  0
 13 28  1  0  0  0  0
 14 15  2  0  0  0  0
 15 16  1  0  0  0  0
 16 29  1  0  0  0  0
 17 18  1  0  0  0  0
 17 30  1  0  0  0  0
 18 19  2  0  0  0  0
 18 31  1  0  0  0  0
 19 32  1  0  0  0  0
 20 33  1  0  0  0  0
 20 34  1  0  0  0  0
 20 35  1  0  0  0  0
 21 36  1  0  0  0  0
 21 37  1  0  0  0  0
 21 38  1  0  0  0  0
M  END
> <PUBCHEM_COMPOUND_CID>
3820754

> <PUBCHEM_CONFORMER_RMSD>
0.8

> <PUBCHEM_CONFORMER_DIVERSEORDER>
83
145
37
31
152
75
68
107
180
99
35
38
164
113
32
79
130
78
69
173
142
42
161
183
168
88
154
128
178
101
175
64
132
179
30
146
118
66
46
160
100
104
174
159
119
56
163
106
120
50
96
182
185
127
170
110
137
135
149
34
117
165
167
172
126
65
111
36
158
131
103
54
14
52
150
40
169
98
76
148
95
81
184
115
70
91
59
114
45
94
123
73
72
187
112
92
41
125
153
186
147
57
19
67
177
47
22
55
27
63
151
13
102
121
108
87
157
77
39
89
48
80
71
20
84
26
61
74
134
144
58
188
29
62
82
122
85
155
162
129
7
176
105
133
124
171
109
136
43
140
86
138
97
93
24
16
28
141
181
11
139
90
18
23
49
166
60
143
8
17
156
116
15
25
10
21
51
44
3
53
33
9
12
1
6
5
2
4

> <PUBCHEM_MMFF94_PARTIAL_CHARGES>
27
1 1.45
10 0.36
11 -0.04
12 -0.15
13 -0.15
14 0.08
15 0.08
16 -0.15
17 -0.15
18 -0.15
19 -0.01
2 -0.65
20 0.28
21 0.28
27 0.15
28 0.15
29 0.15
3 -0.65
30 0.15
31 0.15
32 0.15
4 -0.28
5 -0.36
6 -0.36
7 -0.85
8 0.54
9 -0.01

> <PUBCHEM_EFFECTIVE_ROTOR_COUNT>
6

> <PUBCHEM_PHARMACOPHORE_FEATURES>
7
1 2 acceptor
1 3 acceptor
1 4 acceptor
1 5 acceptor
1 6 acceptor
5 4 11 17 18 19 rings
6 9 12 13 14 15 16 rings

> <PUBCHEM_HEAVY_ATOM_COUNT>
21

> <PUBCHEM_ATOM_DEF_STEREO_COUNT>
0

> <PUBCHEM_ATOM_UDEF_STEREO_COUNT>
0

> <PUBCHEM_BOND_DEF_STEREO_COUNT>
0

> <PUBCHEM_BOND_UDEF_STEREO_COUNT>
0

> <PUBCHEM_ISOTOPIC_ATOM_COUNT>
0

> <PUBCHEM_COMPONENT_COUNT>
1

> <PUBCHEM_CACTVS_TAUTO_COUNT>
1

> <PUBCHEM_CONFORMER_ID>
003A4CD200000053

> <PUBCHEM_MMFF94_ENERGY>
53.6228

> <PUBCHEM_FEATURE_SELFOVERLAP>
35.547

> <PUBCHEM_SHAPE_FINGERPRINT>
10595046 47 18411134762067887110
11089746 13 18261109699715512484
12236239 1 18408038502816501850
12403259 415 17561075943045285040
12553582 1 14117519818078029767
12596602 18 11386371439480836580
12788726 201 17272850905860299729
12892183 10 11963395167222544172
13103583 49 8286204971741347509
13544653 18 12103847860718074778
13583140 156 16298386915329573848
14251764 18 18259982691817565562
14251764 38 18265338480917180636
15527383 91 10159702403922147702
17780758 139 10737276978858158724
1813 80 12103574125298805784
19489759 90 18272369789336080978
19784866 240 11455878166505699345
200 152 18060138764723521678
20300324 65 18201721772988362697
20388580 30 12319443394948049098
20871999 31 18131063836394831701
22950370 63 10015865384077531348
23402539 116 18412543210772385580
23402655 69 18343022146999404448
23557571 272 18059860579786698887
23559900 14 17701818774340533358
25147074 1 18265037064812976923
2838139 119 18408887360738913508
314194 84 11599997773902286892
3472631 163 18339361851658872765
34934 24 18339081471861749505
351380 180 18412263943767730012
4325135 7 18411983576797331039
4340502 62 17386867032029464761
474 4 18187651275617198400
59755656 520 17748832907853955491
633830 44 18260270728982324910
7808743 9 18269836424383689665
83771 10 11024108733322348762
9981440 41 18408888442632965754

> <PUBCHEM_SHAPE_MULTIPOLES>
401.69
12.29
2.25
1.29
8.32
0.4
0.24
4.95
-3.51
-2.68
0.1
0.03
-0.42
-1.25

> <PUBCHEM_SHAPE_SELFOVERLAP>
830.568

> <PUBCHEM_SHAPE_VOLUME>
233.1

> <PUBCHEM_COORDINATE_TYPE>
2
5
10

$$$$
