3853254
  -OEChem-11232109413D

 24 25  0     1  0  0  0  0  0999 V2000
    1.1663   -1.3079   -0.9804 O   0  0  0  0  0  0  0  0  0  0  0  0
   -1.9962   -1.2330   -0.5914 O   0  0  0  0  0  0  0  0  0  0  0  0
    2.5736    1.5545    0.0501 O   0  0  0  0  0  0  0  0  0  0  0  0
    0.2347   -1.3057    0.1097 C   0  0  1  0  0  0  0  0  0  0  0  0
    1.5227   -0.5379    0.1776 C   0  0  2  0  0  0  0  0  0  0  0  0
   -1.0354    0.9033    0.0949 C   0  0  0  0  0  0  0  0  0  0  0  0
   -1.0284   -0.6004   -0.1868 C   0  0  0  0  0  0  0  0  0  0  0  0
    0.2295    1.5546   -0.4967 C   0  0  0  0  0  0  0  0  0  0  0  0
    1.5298    0.9196   -0.0525 C   0  0  0  0  0  0  0  0  0  0  0  0
    0.1920   -2.6118    0.8290 C   0  0  0  0  0  0  0  0  0  0  0  0
   -1.1199    1.1226    1.6130 C   0  0  0  0  0  0  0  0  0  0  0  0
   -2.2686    1.5421   -0.5666 C   0  0  0  0  0  0  0  0  0  0  0  0
    2.3166   -0.9225    0.8076 H   0  0  0  0  0  0  0  0  0  0  0  0
    0.2650    2.6172   -0.2266 H   0  0  0  0  0  0  0  0  0  0  0  0
    0.2133    1.4917   -1.5923 H   0  0  0  0  0  0  0  0  0  0  0  0
    1.1871   -3.0513    0.9587 H   0  0  0  0  0  0  0  0  0  0  0  0
   -0.2479   -2.4808    1.8230 H   0  0  0  0  0  0  0  0  0  0  0  0
   -0.4185   -3.3355    0.2788 H   0  0  0  0  0  0  0  0  0  0  0  0
   -0.2654    0.6872    2.1417 H   0  0  0  0  0  0  0  0  0  0  0  0
   -1.1529    2.1903    1.8569 H   0  0  0  0  0  0  0  0  0  0  0  0
   -2.0212    0.6551    2.0266 H   0  0  0  0  0  0  0  0  0  0  0  0
   -2.2749    1.3644   -1.6483 H   0  0  0  0  0  0  0  0  0  0  0  0
   -3.1991    1.1257   -0.1636 H   0  0  0  0  0  0  0  0  0  0  0  0
   -2.2900    2.6254   -0.4032 H   0  0  0  0  0  0  0  0  0  0  0  0
  1  4  1  0  0  0  0
  1  5  1  0  0  0  0
  2  7  2  0  0  0  0
  3  9  2  0  0  0  0
  4  5  1  0  0  0  0
  4  7  1  0  0  0  0
  4 10  1  0  0  0  0
  5  9  1  0  0  0  0
  5 13  1  0  0  0  0
  6  7  1  0  0  0  0
  6  8  1  0  0  0  0
  6 11  1  0  0  0  0
  6 12  1  0  0  0  0
  8  9  1  0  0  0  0
  8 14  1  0  0  0  0
  8 15  1  0  0  0  0
 10 16  1  0  0  0  0
 10 17  1  0  0  0  0
 10 18  1  0  0  0  0
 11 19  1  0  0  0  0
 11 20  1  0  0  0  0
 11 21  1  0  0  0  0
 12 22  1  0  0  0  0
 12 23  1  0  0  0  0
 12 24  1  0  0  0  0
M  END
> <PUBCHEM_COMPOUND_CID>
3853254

> <PUBCHEM_CONFORMER_RMSD>
0.4

> <PUBCHEM_CONFORMER_DIVERSEORDER>
1
3
6
2
4
5

> <PUBCHEM_MMFF94_PARTIAL_CHARGES>
11
1 -0.3
10 0.09
13 0.1
2 -0.57
3 -0.57
4 0.05
5 0.05
6 0.06
7 0.51
8 0.06
9 0.51

> <PUBCHEM_EFFECTIVE_ROTOR_COUNT>
0.6

> <PUBCHEM_PHARMACOPHORE_FEATURES>
5
1 1 acceptor
1 2 acceptor
1 3 acceptor
3 6 11 12 hydrophobe
7 1 4 5 6 7 8 9 rings

> <PUBCHEM_HEAVY_ATOM_COUNT>
12

> <PUBCHEM_ATOM_DEF_STEREO_COUNT>
0

> <PUBCHEM_ATOM_UDEF_STEREO_COUNT>
2

> <PUBCHEM_BOND_DEF_STEREO_COUNT>
0

> <PUBCHEM_BOND_UDEF_STEREO_COUNT>
0

> <PUBCHEM_ISOTOPIC_ATOM_COUNT>
0

> <PUBCHEM_COMPONENT_COUNT>
1

> <PUBCHEM_CACTVS_TAUTO_COUNT>
3

> <PUBCHEM_CONFORMER_ID>
003ACBC600000001

> <PUBCHEM_MMFF94_ENERGY>
25.3545

> <PUBCHEM_FEATURE_SELFOVERLAP>
25.372

> <PUBCHEM_SHAPE_FINGERPRINT>
12423570 1 17829577627272378977
13024252 1 14058096802465233156
15557651 10 17688635621053287861
16945 1 17974843175056625372
18185500 45 18050001086921312471
21040471 1 18336548308508180444
21922407 69 16052612918027324360
22344851 341 18411411791790369659
23419403 2 14040928083074336558
23552423 10 18337382734764912439
241688 4 18338521837253386946
2748010 2 18408888429578589204
5084963 1 18341609339076875016
63268167 104 18123194506530047480

> <PUBCHEM_SHAPE_MULTIPOLES>
229.35
2.65
2.38
1.03
0.96
0.47
-0.32
-0.29
0.06
-1.1
0.02
0.28
-0.11
-0.26

> <PUBCHEM_SHAPE_SELFOVERLAP>
481.853

> <PUBCHEM_SHAPE_VOLUME>
131.1

> <PUBCHEM_COORDINATE_TYPE>
2
5
10

$$$$
