4047281
  -OEChem-11232109023D

 28 28  0     0  0  0  0  0  0999 V2000
    0.1237    0.7487    0.6072 O   0  0  0  0  0  0  0  0  0  0  0  0
    3.3998   -0.5429   -0.0156 O   0  0  0  0  0  0  0  0  0  0  0  0
    2.5801    1.6143   -0.0684 O   0  0  0  0  0  0  0  0  0  0  0  0
   -3.7856   -0.3603   -0.2397 C   0  0  0  0  0  0  0  0  0  0  0  0
   -1.1579    0.3843    0.3291 C   0  0  0  0  0  0  0  0  0  0  0  0
   -3.3732    0.9559   -0.4474 C   0  0  0  0  0  0  0  0  0  0  0  0
   -2.8842   -1.3042    0.2526 C   0  0  0  0  0  0  0  0  0  0  0  0
   -2.0593    1.3281   -0.1632 C   0  0  0  0  0  0  0  0  0  0  0  0
   -1.5703   -0.9318    0.5370 C   0  0  0  0  0  0  0  0  0  0  0  0
    1.1292   -0.2533    0.4644 C   0  0  0  0  0  0  0  0  0  0  0  0
   -5.1898   -0.7588   -0.5443 C   0  0  0  0  0  0  0  0  0  0  0  0
    4.7018   -0.0597   -0.3617 C   0  0  0  0  0  0  0  0  0  0  0  0
    2.4299    0.4115    0.0978 C   0  0  0  0  0  0  0  0  0  0  0  0
    5.6560   -1.2318   -0.4476 C   0  0  0  0  0  0  0  0  0  0  0  0
   -1.7435    2.3547   -0.3275 H   0  0  0  0  0  0  0  0  0  0  0  0
   -0.9072   -1.6898    0.9431 H   0  0  0  0  0  0  0  0  0  0  0  0
   -4.0655    1.7000   -0.8323 H   0  0  0  0  0  0  0  0  0  0  0  0
   -3.1951   -2.3317    0.4221 H   0  0  0  0  0  0  0  0  0  0  0  0
    1.2548   -0.7746    1.4189 H   0  0  0  0  0  0  0  0  0  0  0  0
    0.8939   -0.9506   -0.3491 H   0  0  0  0  0  0  0  0  0  0  0  0
   -5.2658   -1.1049   -1.5799 H   0  0  0  0  0  0  0  0  0  0  0  0
   -5.5253   -1.5625    0.1200 H   0  0  0  0  0  0  0  0  0  0  0  0
   -5.8787    0.0811   -0.4037 H   0  0  0  0  0  0  0  0  0  0  0  0
    4.6559    0.4521   -1.3295 H   0  0  0  0  0  0  0  0  0  0  0  0
    5.0464    0.6428    0.4054 H   0  0  0  0  0  0  0  0  0  0  0  0
    6.6634   -0.8976   -0.7110 H   0  0  0  0  0  0  0  0  0  0  0  0
    5.6987   -1.7648    0.5080 H   0  0  0  0  0  0  0  0  0  0  0  0
    5.3148   -1.9523   -1.1983 H   0  0  0  0  0  0  0  0  0  0  0  0
  1  5  1  0  0  0  0
  1 10  1  0  0  0  0
  2 12  1  0  0  0  0
  2 13  1  0  0  0  0
  3 13  2  0  0  0  0
  4  6  2  0  0  0  0
  4  7  1  0  0  0  0
  4 11  1  0  0  0  0
  5  8  2  0  0  0  0
  5  9  1  0  0  0  0
  6  8  1  0  0  0  0
  6 17  1  0  0  0  0
  7  9  2  0  0  0  0
  7 18  1  0  0  0  0
  8 15  1  0  0  0  0
  9 16  1  0  0  0  0
 10 13  1  0  0  0  0
 10 19  1  0  0  0  0
 10 20  1  0  0  0  0
 11 21  1  0  0  0  0
 11 22  1  0  0  0  0
 11 23  1  0  0  0  0
 12 14  1  0  0  0  0
 12 24  1  0  0  0  0
 12 25  1  0  0  0  0
 14 26  1  0  0  0  0
 14 27  1  0  0  0  0
 14 28  1  0  0  0  0
M  END
> <PUBCHEM_COMPOUND_CID>
4047281

> <PUBCHEM_CONFORMER_RMSD>
0.6

> <PUBCHEM_CONFORMER_DIVERSEORDER>
1
6
83
44
81
85
90
7
32
80
55
65
11
31
12
63
35
25
73
42
72
47
8
30
26
5
28
46
37
45
2
36
54
43
4
24
78
29
40
19
3
56
52
62
21
15
16
20
18
50
88
79
38
10
75
67
51
77
69
49
39
87
61
93
17
64
70
14
94
33
66
34
89
13
41
22
82
57
60
23
91
92
48
58
86
9
76
53
59
74
27
84
68
71

> <PUBCHEM_MMFF94_PARTIAL_CHARGES>
17
1 -0.36
10 0.34
11 0.14
12 0.28
13 0.66
15 0.15
16 0.15
17 0.15
18 0.15
2 -0.43
3 -0.57
4 -0.14
5 0.08
6 -0.15
7 -0.15
8 -0.15
9 -0.15

> <PUBCHEM_EFFECTIVE_ROTOR_COUNT>
5

> <PUBCHEM_PHARMACOPHORE_FEATURES>
3
1 1 acceptor
1 3 acceptor
6 4 5 6 7 8 9 rings

> <PUBCHEM_HEAVY_ATOM_COUNT>
14

> <PUBCHEM_ATOM_DEF_STEREO_COUNT>
0

> <PUBCHEM_ATOM_UDEF_STEREO_COUNT>
0

> <PUBCHEM_BOND_DEF_STEREO_COUNT>
0

> <PUBCHEM_BOND_UDEF_STEREO_COUNT>
0

> <PUBCHEM_ISOTOPIC_ATOM_COUNT>
0

> <PUBCHEM_COMPONENT_COUNT>
1

> <PUBCHEM_CACTVS_TAUTO_COUNT>
1

> <PUBCHEM_CONFORMER_ID>
003DC1B100000001

> <PUBCHEM_MMFF94_ENERGY>
31.6047

> <PUBCHEM_FEATURE_SELFOVERLAP>
15.23

> <PUBCHEM_SHAPE_FINGERPRINT>
12555020 224 18412256251286410263
12670543 26 18334848390849341991
12916754 54 18341334486924040593
13214271 11 8070023368234236049
13288520 33 18342739611450309567
13690532 89 18343585123107524038
13897977 58 9511455632610157010
14350574 20 18410295825889492997
14911166 2 18260261967211909851
14993402 34 17385437739584641621
15048467 5 11602815792313624591
15242439 84 18186518817121162835
17834072 33 18409451414572360940
17834072 8 18259979371232937039
17834076 25 12540694825439006870
17870717 6 18339091405762292486
18186145 218 17676479588047962497
1986462 14 18409450267125080676
200 152 17917992775923659979
20300324 65 18409449184999069765
20374829 77 18413386535958761599
20432913 95 16487262049589114046
20645477 70 18272373057985801390
20767249 213 10953459630833136167
20871999 31 18186794756338891749
21119208 17 17967813859675811414
21267235 1 18408329895273742611
21637258 2 16414904358102708479
221490 88 18263933313820150210
23402539 116 18342172237564873237
23402655 69 17967808293393161580
23403322 49 18343866593377927702
23557571 272 18410295774471666389
23559900 14 18337385053899747672
26918003 58 14620791617802151119
42 15 11600012054478518308
4214541 1 18410575054646105428
559249 180 18265329521657163722
58051976 100 18261390078605358487
93112 12 18333732446244174480
9709674 26 18191025809804475842

> <PUBCHEM_SHAPE_MULTIPOLES>
270.51
11.48
1.38
0.74
9.62
0.14
0
-3.85
-3.1
-0.15
-0.04
-0.11
-0.04
0.29

> <PUBCHEM_SHAPE_SELFOVERLAP>
547.062

> <PUBCHEM_SHAPE_VOLUME>
158.3

> <PUBCHEM_COORDINATE_TYPE>
2
5
10

$$$$
