40631
  -OEChem-11232109063D

 28 27  0     0  0  0  0  0  0999 V2000
    3.9217    1.9207   -0.1674 N   0  0  0  0  0  0  0  0  0  0  0  0
   -1.4027   -0.2669    0.3516 C   0  0  0  0  0  0  0  0  0  0  0  0
   -0.7766   -1.6421    0.1026 C   0  0  0  0  0  0  0  0  0  0  0  0
   -2.8545   -0.2241   -0.1300 C   0  0  0  0  0  0  0  0  0  0  0  0
    0.6735   -1.7438    0.5928 C   0  0  0  0  0  0  0  0  0  0  0  0
   -3.4940    1.1351    0.1528 C   0  0  0  0  0  0  0  0  0  0  0  0
    1.6273   -0.7485   -0.0394 C   0  0  0  0  0  0  0  0  0  0  0  0
   -4.9467    1.1704   -0.2939 C   0  0  0  0  0  0  0  0  0  0  0  0
    1.8166   -0.8861   -1.5277 C   0  0  0  0  0  0  0  0  0  0  0  0
    2.2604    0.1587    0.7279 C   0  0  0  0  0  0  0  0  0  0  0  0
    3.1751    1.1266    0.2308 C   0  0  0  0  0  0  0  0  0  0  0  0
   -0.8334    0.5110   -0.1697 H   0  0  0  0  0  0  0  0  0  0  0  0
   -1.3621   -0.0367    1.4232 H   0  0  0  0  0  0  0  0  0  0  0  0
   -1.3689   -2.4078    0.6191 H   0  0  0  0  0  0  0  0  0  0  0  0
   -0.8272   -1.8824   -0.9663 H   0  0  0  0  0  0  0  0  0  0  0  0
   -2.8921   -0.4328   -1.2061 H   0  0  0  0  0  0  0  0  0  0  0  0
   -3.4305   -1.0110    0.3722 H   0  0  0  0  0  0  0  0  0  0  0  0
    1.0441   -2.7566    0.3893 H   0  0  0  0  0  0  0  0  0  0  0  0
    0.6775   -1.6402    1.6857 H   0  0  0  0  0  0  0  0  0  0  0  0
   -3.4437    1.3549    1.2256 H   0  0  0  0  0  0  0  0  0  0  0  0
   -2.9373    1.9238   -0.3666 H   0  0  0  0  0  0  0  0  0  0  0  0
   -5.0309    0.9842   -1.3694 H   0  0  0  0  0  0  0  0  0  0  0  0
   -5.3842    2.1514   -0.0837 H   0  0  0  0  0  0  0  0  0  0  0  0
   -5.5380    0.4148    0.2333 H   0  0  0  0  0  0  0  0  0  0  0  0
    0.8998   -0.6101   -2.0579 H   0  0  0  0  0  0  0  0  0  0  0  0
    2.0659   -1.9220   -1.7814 H   0  0  0  0  0  0  0  0  0  0  0  0
    2.6224   -0.2585   -1.9188 H   0  0  0  0  0  0  0  0  0  0  0  0
    2.0735    0.1813    1.7977 H   0  0  0  0  0  0  0  0  0  0  0  0
  1 11  3  0  0  0  0
  2  3  1  0  0  0  0
  2  4  1  0  0  0  0
  2 12  1  0  0  0  0
  2 13  1  0  0  0  0
  3  5  1  0  0  0  0
  3 14  1  0  0  0  0
  3 15  1  0  0  0  0
  4  6  1  0  0  0  0
  4 16  1  0  0  0  0
  4 17  1  0  0  0  0
  5  7  1  0  0  0  0
  5 18  1  0  0  0  0
  5 19  1  0  0  0  0
  6  8  1  0  0  0  0
  6 20  1  0  0  0  0
  6 21  1  0  0  0  0
  7  9  1  0  0  0  0
  7 10  2  3  0  0  0
  8 22  1  0  0  0  0
  8 23  1  0  0  0  0
  8 24  1  0  0  0  0
  9 25  1  0  0  0  0
  9 26  1  0  0  0  0
  9 27  1  0  0  0  0
 10 11  1  0  0  0  0
 10 28  1  0  0  0  0
M  END
> <PUBCHEM_COMPOUND_CID>
40631

> <PUBCHEM_CONFORMER_RMSD>
0.6

> <PUBCHEM_CONFORMER_DIVERSEORDER>
1
75
35
61
55
78
53
2
73
77
21
42
38
5
43
71
54
44
70
76
31
39
23
66
40
69
29
25
68
72
3
74
28
33
14
13
20
47
34
22
11
37
63
9
65
12
32
67
58
41
10
56
45
62
6
8
17
60
50
64
24
19
51
15
57
27
30
4
46
7
59
26
18
48
49
52
16
36

> <PUBCHEM_MMFF94_PARTIAL_CHARGES>
7
1 -0.56
10 -0.09
11 0.49
28 0.15
5 0.14
7 -0.28
9 0.14

> <PUBCHEM_EFFECTIVE_ROTOR_COUNT>
5

> <PUBCHEM_PHARMACOPHORE_FEATURES>
5
1 1 acceptor
1 8 hydrophobe
1 9 hydrophobe
3 2 4 6 hydrophobe
3 3 5 7 hydrophobe

> <PUBCHEM_HEAVY_ATOM_COUNT>
11

> <PUBCHEM_ATOM_DEF_STEREO_COUNT>
0

> <PUBCHEM_ATOM_UDEF_STEREO_COUNT>
0

> <PUBCHEM_BOND_DEF_STEREO_COUNT>
0

> <PUBCHEM_BOND_UDEF_STEREO_COUNT>
1

> <PUBCHEM_ISOTOPIC_ATOM_COUNT>
0

> <PUBCHEM_COMPONENT_COUNT>
1

> <PUBCHEM_CACTVS_TAUTO_COUNT>
1

> <PUBCHEM_CONFORMER_ID>
00009EB700000001

> <PUBCHEM_MMFF94_ENERGY>
2.3263

> <PUBCHEM_FEATURE_SELFOVERLAP>
25.454

> <PUBCHEM_SHAPE_FINGERPRINT>
12006461 19 8935004780164133189
122479 349 18261394498142140794
12616999 72 16988839462891935175
13839132 238 18338804523722449270
14123255 52 18408602578109467985
14251710 61 10087638213093819981
14252887 29 13190330254346358216
15775835 57 18334855030330704657
170605 34 18412544297172349075
177051 138 8934993776858600641
17834072 32 18264491856916248620
18186145 218 18270968929865259179
18342897 96 18270960262152010894
20231682 184 18273493468206820158
20281407 28 8934734300583190722
20621476 91 17387148648966690065
20671657 1 18191307074607792507
20711983 171 18264485255962250196
20711985 344 12606865599725434147
20767249 442 18259987063218638039
20767249 462 18408040736189186669
20871999 31 17346023580919140223
21499 59 18410848850711784431
22959321 54 18339080389609021505
22959321 8 17703512202587753960
23402655 69 17917712396211225397
23500284 214 18260833725868935995
23557571 272 18270971270448615607
328317 168 18409161130454176165
449060 23 11023836071307377510
449060 62 18412824655758158753
59345606 38 18408038533213816221
8199 26 18410575101985801777
94968 8 10591757696990045228

> <PUBCHEM_SHAPE_MULTIPOLES>
221.39
8.1
1.9
0.94
7.05
0.1
0.27
6.36
0.67
-0.98
-0.05
-0.49
-0.22
0.26

> <PUBCHEM_SHAPE_SELFOVERLAP>
405.572

> <PUBCHEM_SHAPE_VOLUME>
138.8

> <PUBCHEM_COORDINATE_TYPE>
2
5
10

$$$$
