4093587
  -OEChem-11232108453D

 39 38  0     1  0  0  0  0  0999 V2000
    1.2193    1.0777   -0.0374 O   0  0  0  0  0  0  0  0  0  0  0  0
    1.2771   -0.4269   -1.7793 O   0  0  0  0  0  0  0  0  0  0  0  0
   -1.0215    0.1812    0.1598 C   0  0  0  0  0  0  0  0  0  0  0  0
   -0.1576    1.3863   -0.2407 C   0  0  1  0  0  0  0  0  0  0  0  0
   -2.5176    0.3505   -0.1338 C   0  0  0  0  0  0  0  0  0  0  0  0
   -3.2948   -0.9200    0.2232 C   0  0  0  0  0  0  0  0  0  0  0  0
   -0.5029    2.6612    0.5353 C   0  0  0  0  0  0  0  0  0  0  0  0
   -4.8005   -0.7996   -0.0218 C   0  0  0  0  0  0  0  0  0  0  0  0
    0.3825    3.8339    0.1308 C   0  0  0  0  0  0  0  0  0  0  0  0
   -5.5727   -2.0682    0.3062 C   0  0  0  0  0  0  0  0  0  0  0  0
    1.6893   -0.0153   -0.7042 C   0  0  0  0  0  0  0  0  0  0  0  0
    2.7909   -0.6485    0.0827 C   0  0  0  0  0  0  0  0  0  0  0  0
    3.6639    0.2352    0.9234 C   0  0  0  0  0  0  0  0  0  0  0  0
    2.9237   -1.9801   -0.0597 C   0  0  0  0  0  0  0  0  0  0  0  0
    3.9208   -2.8676    0.6154 C   0  0  0  0  0  0  0  0  0  0  0  0
   -0.8780   -0.0181    1.2303 H   0  0  0  0  0  0  0  0  0  0  0  0
   -0.6862   -0.7310   -0.3448 H   0  0  0  0  0  0  0  0  0  0  0  0
   -0.3047    1.5930   -1.3094 H   0  0  0  0  0  0  0  0  0  0  0  0
   -2.6612    0.5831   -1.1955 H   0  0  0  0  0  0  0  0  0  0  0  0
   -2.9248    1.1868    0.4441 H   0  0  0  0  0  0  0  0  0  0  0  0
   -3.1237   -1.1652    1.2789 H   0  0  0  0  0  0  0  0  0  0  0  0
   -2.9034   -1.7601   -0.3641 H   0  0  0  0  0  0  0  0  0  0  0  0
   -0.3707    2.4878    1.6101 H   0  0  0  0  0  0  0  0  0  0  0  0
   -1.5474    2.9433    0.3701 H   0  0  0  0  0  0  0  0  0  0  0  0
   -5.2012    0.0248    0.5799 H   0  0  0  0  0  0  0  0  0  0  0  0
   -4.9772   -0.5409   -1.0727 H   0  0  0  0  0  0  0  0  0  0  0  0
    0.2958    4.0388   -0.9410 H   0  0  0  0  0  0  0  0  0  0  0  0
    0.0821    4.7359    0.6736 H   0  0  0  0  0  0  0  0  0  0  0  0
    1.4348    3.6407    0.3617 H   0  0  0  0  0  0  0  0  0  0  0  0
   -6.6403   -1.9245    0.1132 H   0  0  0  0  0  0  0  0  0  0  0  0
   -5.4494   -2.3382    1.3598 H   0  0  0  0  0  0  0  0  0  0  0  0
   -5.2247   -2.9060   -0.3062 H   0  0  0  0  0  0  0  0  0  0  0  0
    4.6255   -0.2246    1.1649 H   0  0  0  0  0  0  0  0  0  0  0  0
    3.8910    1.1656    0.3911 H   0  0  0  0  0  0  0  0  0  0  0  0
    3.1584    0.4887    1.8607 H   0  0  0  0  0  0  0  0  0  0  0  0
    2.2373   -2.5158   -0.7138 H   0  0  0  0  0  0  0  0  0  0  0  0
    3.3995   -3.7024    1.0953 H   0  0  0  0  0  0  0  0  0  0  0  0
    4.5031   -2.3612    1.3880 H   0  0  0  0  0  0  0  0  0  0  0  0
    4.6127   -3.2797   -0.1254 H   0  0  0  0  0  0  0  0  0  0  0  0
  1  4  1  0  0  0  0
  1 11  1  0  0  0  0
  2 11  2  0  0  0  0
  3  4  1  0  0  0  0
  3  5  1  0  0  0  0
  3 16  1  0  0  0  0
  3 17  1  0  0  0  0
  4  7  1  0  0  0  0
  4 18  1  0  0  0  0
  5  6  1  0  0  0  0
  5 19  1  0  0  0  0
  5 20  1  0  0  0  0
  6  8  1  0  0  0  0
  6 21  1  0  0  0  0
  6 22  1  0  0  0  0
  7  9  1  0  0  0  0
  7 23  1  0  0  0  0
  7 24  1  0  0  0  0
  8 10  1  0  0  0  0
  8 25  1  0  0  0  0
  8 26  1  0  0  0  0
  9 27  1  0  0  0  0
  9 28  1  0  0  0  0
  9 29  1  0  0  0  0
 10 30  1  0  0  0  0
 10 31  1  0  0  0  0
 10 32  1  0  0  0  0
 11 12  1  0  0  0  0
 12 13  1  0  0  0  0
 12 14  2  3  0  0  0
 13 33  1  0  0  0  0
 13 34  1  0  0  0  0
 13 35  1  0  0  0  0
 14 15  1  0  0  0  0
 14 36  1  0  0  0  0
 15 37  1  0  0  0  0
 15 38  1  0  0  0  0
 15 39  1  0  0  0  0
M  END
> <PUBCHEM_COMPOUND_CID>
4093587

> <PUBCHEM_CONFORMER_RMSD>
0.8

> <PUBCHEM_CONFORMER_DIVERSEORDER>
1
183
350
348
21
189
274
214
422
399
336
431
105
159
323
284
337
439
53
456
269
285
41
416
185
64
435
219
205
390
302
424
460
464
28
303
204
221
280
322
328
353
84
4
148
243
266
408
209
242
241
382
236
167
366
364
436
51
154
197
369
178
459
179
195
326
232
455
50
196
448
286
62
14
250
149
375
341
398
452
231
122
354
346
177
391
12
191
117
289
461
333
413
281
188
427
444
360
335
32
240
244
203
239
388
254
421
187
24
198
453
402
106
363
249
96
10
377
400
307
13
184
257
312
441
338
235
434
356
381
132
332
449
276
349
347
465
25
26
314
318
60
358
414
82
224
457
234
119
19
374
124
320
44
147
376
296
458
259
201
409
127
38
88
260
304
451
134
311
163
172
309
7
361
16
153
56
80
157
18
90
271
246
108
419
142
97
308
133
379
277
79
437
222
213
263
39
217
297
392
404
89
386
169
344
264
247
343
407
447
20
5
454
43
75
411
238
446
143
30
298
443
397
194
321
182
120
327
145
272
190
368
78
291
11
176
33
206
128
49
299
315
405
359
227
158
394
113
165
396
463
345
295
40
17
200
258
63
3
380
283
83
273
352
294
31
186
442
395
367
22
230
365
104
256
426
121
385
47
251
355
445
29
292
334
417
86
9
102
2
253
112
52
268
393
229
371
262
215
114
316
401
123
101
87
325
248
193
125
420
65
155
211
36
207
362
301
342
81
406
278
383
170
42
202
300
139
418
37
93
100
317
210
35
160
199
115
428
331
68
378
462
412
94
6
144
384
61
324
429
357
59
168
293
118
76
261
27
432
140
45
95
270
450
433
228
111
310
8
306
57
267
23
181
54
126
161
245
233
252
237
410
339
220
218
389
372
150
34
313
212
403
290
171
387
141
305
340
216
288
66
164
255
91
58
329
430
319
152
223
138
425
370
287
103
151
130
55
15
131
110
415
69
440
92
192
180
225
70
279
109
72
423
67
275
174
98
265
173
46
351
208
48
136
162
166
99
77
330
74
373
116
73
282
438
137
107
135
146
71
156
85
129
226
175

> <PUBCHEM_MMFF94_PARTIAL_CHARGES>
9
1 -0.43
11 0.71
12 -0.12
13 0.14
14 -0.29
15 0.14
2 -0.57
36 0.15
4 0.28

> <PUBCHEM_EFFECTIVE_ROTOR_COUNT>
8

> <PUBCHEM_PHARMACOPHORE_FEATURES>
6
1 10 hydrophobe
1 13 hydrophobe
1 15 hydrophobe
1 2 acceptor
1 9 hydrophobe
4 3 5 6 8 hydrophobe

> <PUBCHEM_HEAVY_ATOM_COUNT>
15

> <PUBCHEM_ATOM_DEF_STEREO_COUNT>
0

> <PUBCHEM_ATOM_UDEF_STEREO_COUNT>
1

> <PUBCHEM_BOND_DEF_STEREO_COUNT>
0

> <PUBCHEM_BOND_UDEF_STEREO_COUNT>
1

> <PUBCHEM_ISOTOPIC_ATOM_COUNT>
0

> <PUBCHEM_COMPONENT_COUNT>
1

> <PUBCHEM_CACTVS_TAUTO_COUNT>
1

> <PUBCHEM_CONFORMER_ID>
003E769300000001

> <PUBCHEM_MMFF94_ENERGY>
17.7903

> <PUBCHEM_FEATURE_SELFOVERLAP>
30.45

> <PUBCHEM_SHAPE_FINGERPRINT>
11265709 11 18410579456950342265
122479 349 10807638004668251294
12500047 106 17544190477011497972
12824470 246 18114740408805525211
13533116 47 18265622172887930099
13955234 65 18052542359558070561
1420 369 18409450258725543899
14252887 29 17988372532503212887
15042514 8 18123193398803362905
15342816 4 18339938059669467031
15885798 251 18410859824268706281
20281475 54 18336271158442165541
20369508 70 18337109085535113027
20645477 70 18188769582338444131
20671657 53 18411141355312087393
20681677 274 18267011757557546234
20871998 22 18411980260671440121
21250096 35 18410009927534661707
21296965 67 18411417306597085785
21501925 9 18342175596218547609
2255824 54 18124883605778210453
23526113 38 18113621222191074905
23559900 14 18193827155553547432
257057 1 18410576149836652005
3086196 2 18195241114326423474
31174 14 17988350529765485960
314173 41 18339934812943547599
3286 77 18261955249684171399
3421961 26 18339359777094274905
54040823 5 18340495572194284594
57672749 33 18200306761685190688
633830 44 8142087546272367283
7364860 26 18195809802319774633
77188 2 18410573980915240164
7808743 9 9870874975871941606
81228 2 18054525616098812081
9841814 1 18270133416902550093

> <PUBCHEM_SHAPE_MULTIPOLES>
296.95
9.12
3.6
0.92
10.64
2.67
0.23
-10.43
-1.72
-1.31
-0.7
-0.49
-0.07
-0.04

> <PUBCHEM_SHAPE_SELFOVERLAP>
553.711

> <PUBCHEM_SHAPE_VOLUME>
186.2

> <PUBCHEM_COORDINATE_TYPE>
2
5
10

$$$$
