41685
  -OEChem-11232109113D

 47 46  0     1  0  0  0  0  0999 V2000
   -2.8152    0.3117    0.8680 O   0  0  0  0  0  0  0  0  0  0  0  0
   -4.8007    0.4294   -0.3070 O   0  0  0  0  0  0  0  0  0  0  0  0
   -2.0876    0.2159   -0.3639 C   0  0  2  0  0  0  0  0  0  0  0  0
   -0.5755    0.1150   -0.0436 C   0  0  0  0  0  0  0  0  0  0  0  0
   -0.1907   -1.0522    0.8767 C   0  0  0  0  0  0  0  0  0  0  0  0
   -2.3517    1.5184   -1.1355 C   0  0  0  0  0  0  0  0  0  0  0  0
    1.2882   -1.0635    1.1510 C   0  0  0  0  0  0  0  0  0  0  0  0
    2.2392   -1.6854    0.4273 C   0  0  0  0  0  0  0  0  0  0  0  0
   -2.5902   -1.0285   -1.0640 C   0  0  0  0  0  0  0  0  0  0  0  0
    3.7087   -1.6839    0.7839 C   0  0  0  0  0  0  0  0  0  0  0  0
    4.4680   -0.5494    0.0924 C   0  0  0  0  0  0  0  0  0  0  0  0
    1.8723   -2.4746   -0.8007 C   0  0  0  0  0  0  0  0  0  0  0  0
    3.9649    0.7922    0.5459 C   0  0  0  0  0  0  0  0  0  0  0  0
   -4.1676    0.4132    0.7400 C   0  0  0  0  0  0  0  0  0  0  0  0
   -2.7020   -1.2325   -2.3824 C   0  0  0  0  0  0  0  0  0  0  0  0
    3.4081    1.7573   -0.2104 C   0  0  0  0  0  0  0  0  0  0  0  0
   -4.7915    0.5043    2.0995 C   0  0  0  0  0  0  0  0  0  0  0  0
    3.1404    1.6506   -1.6852 C   0  0  0  0  0  0  0  0  0  0  0  0
    2.9829    3.0620    0.4079 C   0  0  0  0  0  0  0  0  0  0  0  0
   -0.0066    0.0513   -0.9809 H   0  0  0  0  0  0  0  0  0  0  0  0
   -0.2618    1.0455    0.4510 H   0  0  0  0  0  0  0  0  0  0  0  0
   -0.5178   -2.0130    0.4675 H   0  0  0  0  0  0  0  0  0  0  0  0
   -0.7093   -0.9536    1.8384 H   0  0  0  0  0  0  0  0  0  0  0  0
   -2.2788    2.3880   -0.4713 H   0  0  0  0  0  0  0  0  0  0  0  0
   -3.3298    1.5702   -1.6219 H   0  0  0  0  0  0  0  0  0  0  0  0
   -1.6135    1.6513   -1.9360 H   0  0  0  0  0  0  0  0  0  0  0  0
    1.5968   -0.5060    2.0337 H   0  0  0  0  0  0  0  0  0  0  0  0
    4.1567   -2.6483    0.5148 H   0  0  0  0  0  0  0  0  0  0  0  0
    3.8242   -1.5966    1.8727 H   0  0  0  0  0  0  0  0  0  0  0  0
   -2.8422   -1.8734   -0.4231 H   0  0  0  0  0  0  0  0  0  0  0  0
    4.4319   -0.6784   -0.9920 H   0  0  0  0  0  0  0  0  0  0  0  0
    5.5279   -0.6203    0.3671 H   0  0  0  0  0  0  0  0  0  0  0  0
    0.8467   -2.3300   -1.1463 H   0  0  0  0  0  0  0  0  0  0  0  0
    2.0172   -3.5438   -0.6141 H   0  0  0  0  0  0  0  0  0  0  0  0
    2.5194   -2.1857   -1.6363 H   0  0  0  0  0  0  0  0  0  0  0  0
    4.1044    0.9906    1.6081 H   0  0  0  0  0  0  0  0  0  0  0  0
   -2.4428   -0.4670   -3.1044 H   0  0  0  0  0  0  0  0  0  0  0  0
   -3.0543   -2.1859   -2.7610 H   0  0  0  0  0  0  0  0  0  0  0  0
   -4.4247    1.3944    2.6168 H   0  0  0  0  0  0  0  0  0  0  0  0
   -4.5625   -0.3971    2.6736 H   0  0  0  0  0  0  0  0  0  0  0  0
   -5.8774    0.5844    1.9955 H   0  0  0  0  0  0  0  0  0  0  0  0
    3.3484    0.6654   -2.1053 H   0  0  0  0  0  0  0  0  0  0  0  0
    3.7479    2.3807   -2.2299 H   0  0  0  0  0  0  0  0  0  0  0  0
    2.0850    1.8631   -1.8887 H   0  0  0  0  0  0  0  0  0  0  0  0
    3.5081    3.8960   -0.0691 H   0  0  0  0  0  0  0  0  0  0  0  0
    1.9054    3.2090    0.2786 H   0  0  0  0  0  0  0  0  0  0  0  0
    3.1969    3.1050    1.4810 H   0  0  0  0  0  0  0  0  0  0  0  0
  1  3  1  0  0  0  0
  1 14  1  0  0  0  0
  2 14  2  0  0  0  0
  3  4  1  0  0  0  0
  3  6  1  0  0  0  0
  3  9  1  0  0  0  0
  4  5  1  0  0  0  0
  4 20  1  0  0  0  0
  4 21  1  0  0  0  0
  5  7  1  0  0  0  0
  5 22  1  0  0  0  0
  5 23  1  0  0  0  0
  6 24  1  0  0  0  0
  6 25  1  0  0  0  0
  6 26  1  0  0  0  0
  7  8  2  3  0  0  0
  7 27  1  0  0  0  0
  8 10  1  0  0  0  0
  8 12  1  0  0  0  0
  9 15  2  0  0  0  0
  9 30  1  0  0  0  0
 10 11  1  0  0  0  0
 10 28  1  0  0  0  0
 10 29  1  0  0  0  0
 11 13  1  0  0  0  0
 11 31  1  0  0  0  0
 11 32  1  0  0  0  0
 12 33  1  0  0  0  0
 12 34  1  0  0  0  0
 12 35  1  0  0  0  0
 13 16  2  0  0  0  0
 13 36  1  0  0  0  0
 14 17  1  0  0  0  0
 15 37  1  0  0  0  0
 15 38  1  0  0  0  0
 16 18  1  0  0  0  0
 16 19  1  0  0  0  0
 17 39  1  0  0  0  0
 17 40  1  0  0  0  0
 17 41  1  0  0  0  0
 18 42  1  0  0  0  0
 18 43  1  0  0  0  0
 18 44  1  0  0  0  0
 19 45  1  0  0  0  0
 19 46  1  0  0  0  0
 19 47  1  0  0  0  0
M  END
> <PUBCHEM_COMPOUND_CID>
41685

> <PUBCHEM_CONFORMER_RMSD>
0.8

> <PUBCHEM_CONFORMER_DIVERSEORDER>
1
119
221
376
33
167
288
247
239
46
322
132
382
166
334
38
344
338
263
92
319
230
355
375
261
282
318
151
377
218
384
372
385
63
278
246
158
208
187
352
53
258
141
127
297
262
225
178
157
83
118
137
374
107
360
216
347
324
295
111
115
328
251
24
349
368
280
104
383
356
164
116
223
5
331
217
18
72
220
373
343
291
234
163
366
12
350
69
284
273
358
197
243
314
67
381
56
353
310
25
345
286
171
369
260
248
101
183
86
184
189
131
3
241
76
300
123
58
275
14
339
277
195
242
364
210
301
279
11
276
335
317
327
155
143
367
330
200
117
109
130
84
379
148
323
213
305
306
321
87
188
194
190
124
259
94
265
268
351
293
299
9
41
341
8
133
342
303
144
365
292
44
238
267
174
4
348
180
57
271
177
10
380
204
378
37
47
165
103
255
315
370
362
199
316
245
134
29
296
173
312
78
311
35
240
207
120
108
237
256
96
236
179
371
196
294
125
162
160
272
40
219
147
227
212
249
26
74
285
55
77
244
170
309
95
181
80
161
298
302
222
201
235
287
112
122
19
290
34
100
7
185
254
252
182
307
31
66
110
139
337
198
326
340
39
283
82
232
257
336
308
13
60
51
231
89
85
193
129
313
49
126
228
114
113
36
250
226
269
142
333
45
253
215
90
121
229
70
42
16
28
203
304
175
206
68
48
136
192
97
32
98
361
168
224
150
99
363
172
65
2
211
209
329
264
289
102
156
105
346
357
81
354
149
71
17
61
186
359
274
62
59
159
320
169
75
233
153
22
138
6
20
73
43
91
50
54
21
27
93
270
154
128
214
202
332
191
266
205
79
106
145
325
176
152
140
64
146
30
88
52
23
135
281
15

> <PUBCHEM_MMFF94_PARTIAL_CHARGES>
22
1 -0.43
10 0.14
11 0.14
12 0.14
13 -0.29
14 0.66
15 -0.3
16 -0.28
17 0.06
18 0.14
19 0.14
2 -0.57
27 0.15
3 0.42
30 0.15
36 0.15
37 0.15
38 0.15
5 0.14
7 -0.29
8 -0.28
9 -0.29

> <PUBCHEM_EFFECTIVE_ROTOR_COUNT>
9

> <PUBCHEM_PHARMACOPHORE_FEATURES>
5
1 12 hydrophobe
1 15 hydrophobe
1 2 acceptor
3 16 18 19 hydrophobe
4 8 10 11 13 hydrophobe

> <PUBCHEM_HEAVY_ATOM_COUNT>
19

> <PUBCHEM_ATOM_DEF_STEREO_COUNT>
1

> <PUBCHEM_ATOM_UDEF_STEREO_COUNT>
0

> <PUBCHEM_BOND_DEF_STEREO_COUNT>
0

> <PUBCHEM_BOND_UDEF_STEREO_COUNT>
1

> <PUBCHEM_ISOTOPIC_ATOM_COUNT>
0

> <PUBCHEM_COMPONENT_COUNT>
1

> <PUBCHEM_CACTVS_TAUTO_COUNT>
1

> <PUBCHEM_CONFORMER_ID>
0000A2D500000001

> <PUBCHEM_MMFF94_ENERGY>
31.3982

> <PUBCHEM_FEATURE_SELFOVERLAP>
25.38

> <PUBCHEM_SHAPE_FINGERPRINT>
10615611 76 17844556373294473825
11045977 3 17822018588037170051
11545043 162 15647325304536484026
12633257 1 18114451332306413042
13134695 92 18189041033204370742
13583140 156 17969496005519692963
14251764 3 16370718236191522706
14251764 75 18049737496500412456
15342168 16 18261964040965423773
15806764 133 18119257155438474229
17834072 33 18341890818733850123
18186145 218 18113893866857618122
19752476 56 17774445009548626536
21033648 29 16950829367373410820
23227448 37 18409445903612563271
23557571 272 15936683779528623247
23559900 14 14779819395822469779
3060560 45 18272373040927524446
474 4 18409447016151205922
49207404 50 17676780871551018736
5281201 14 18264770969750058646
633830 44 18270126849845184172
6913067 236 16298660689910275819
7495541 125 17530689788382155514

> <PUBCHEM_SHAPE_MULTIPOLES>
379.27
10.18
2.54
1.73
4.15
0.69
0.43
2.56
-2
-3.34
0.35
1.77
-0.15
-1.2

> <PUBCHEM_SHAPE_SELFOVERLAP>
729.363

> <PUBCHEM_SHAPE_VOLUME>
231.2

> <PUBCHEM_COORDINATE_TYPE>
2
5
10

$$$$
