41742
  -OEChem-11232109083D

 38 37  0     1  0  0  0  0  0999 V2000
    3.1140    0.5073   -1.3593 O   0  0  0  0  0  0  0  0  0  0  0  0
    1.6794    0.5296    0.5956 C   0  0  0  0  0  0  0  0  0  0  0  0
    3.1289    0.4121    0.0674 C   0  0  2  0  0  0  0  0  0  0  0  0
   -4.2089   -0.0466   -0.2168 C   0  0  0  0  0  0  0  0  0  0  0  0
   -3.0497    0.5762    0.5883 C   0  0  0  0  0  0  0  0  0  0  0  0
    0.7232   -0.5714    0.1063 C   0  0  0  0  0  0  0  0  0  0  0  0
   -1.6747    0.3394   -0.0014 C   0  0  0  0  0  0  0  0  0  0  0  0
   -0.6744   -0.3268    0.6089 C   0  0  0  0  0  0  0  0  0  0  0  0
    3.9456    1.6123    0.5631 C   0  0  0  0  0  0  0  0  0  0  0  0
   -4.0716   -1.5640   -0.3568 C   0  0  0  0  0  0  0  0  0  0  0  0
   -5.5440    0.2912    0.4520 C   0  0  0  0  0  0  0  0  0  0  0  0
   -1.4501    0.9480   -1.3624 C   0  0  0  0  0  0  0  0  0  0  0  0
    3.8011   -0.8602    0.5411 C   0  0  0  0  0  0  0  0  0  0  0  0
    4.2810   -1.8471   -0.2258 C   0  0  0  0  0  0  0  0  0  0  0  0
    1.6862    0.5371    1.6944 H   0  0  0  0  0  0  0  0  0  0  0  0
    1.2710    1.4999    0.2800 H   0  0  0  0  0  0  0  0  0  0  0  0
   -4.2245    0.3893   -1.2236 H   0  0  0  0  0  0  0  0  0  0  0  0
   -3.2052    1.6597    0.6738 H   0  0  0  0  0  0  0  0  0  0  0  0
   -3.0785    0.1881    1.6153 H   0  0  0  0  0  0  0  0  0  0  0  0
    0.7435   -0.6503   -0.9855 H   0  0  0  0  0  0  0  0  0  0  0  0
    1.0499   -1.5489    0.4808 H   0  0  0  0  0  0  0  0  0  0  0  0
   -0.8726   -0.7294    1.6015 H   0  0  0  0  0  0  0  0  0  0  0  0
    4.9667    1.5846    0.1632 H   0  0  0  0  0  0  0  0  0  0  0  0
    4.0057    1.6429    1.6567 H   0  0  0  0  0  0  0  0  0  0  0  0
    3.5075    2.5564    0.2183 H   0  0  0  0  0  0  0  0  0  0  0  0
   -4.9306   -1.9830   -0.8920 H   0  0  0  0  0  0  0  0  0  0  0  0
   -3.1737   -1.8341   -0.9214 H   0  0  0  0  0  0  0  0  0  0  0  0
   -4.0160   -2.0491    0.6237 H   0  0  0  0  0  0  0  0  0  0  0  0
   -6.3822   -0.1082   -0.1287 H   0  0  0  0  0  0  0  0  0  0  0  0
   -5.6776    1.3756    0.5268 H   0  0  0  0  0  0  0  0  0  0  0  0
   -5.6012   -0.1286    1.4621 H   0  0  0  0  0  0  0  0  0  0  0  0
   -1.9237    0.3352   -2.1358 H   0  0  0  0  0  0  0  0  0  0  0  0
   -0.3968    1.0726   -1.6255 H   0  0  0  0  0  0  0  0  0  0  0  0
   -1.8913    1.9504   -1.4027 H   0  0  0  0  0  0  0  0  0  0  0  0
    3.8925   -0.9796    1.6196 H   0  0  0  0  0  0  0  0  0  0  0  0
    2.6508    1.3266   -1.6042 H   0  0  0  0  0  0  0  0  0  0  0  0
    4.7411   -2.7178    0.2290 H   0  0  0  0  0  0  0  0  0  0  0  0
    4.2269   -1.8131   -1.3076 H   0  0  0  0  0  0  0  0  0  0  0  0
  1  3  1  0  0  0  0
  1 36  1  0  0  0  0
  2  3  1  0  0  0  0
  2  6  1  0  0  0  0
  2 15  1  0  0  0  0
  2 16  1  0  0  0  0
  3  9  1  0  0  0  0
  3 13  1  0  0  0  0
  4  5  1  0  0  0  0
  4 10  1  0  0  0  0
  4 11  1  0  0  0  0
  4 17  1  0  0  0  0
  5  7  1  0  0  0  0
  5 18  1  0  0  0  0
  5 19  1  0  0  0  0
  6  8  1  0  0  0  0
  6 20  1  0  0  0  0
  6 21  1  0  0  0  0
  7  8  2  3  0  0  0
  7 12  1  0  0  0  0
  8 22  1  0  0  0  0
  9 23  1  0  0  0  0
  9 24  1  0  0  0  0
  9 25  1  0  0  0  0
 10 26  1  0  0  0  0
 10 27  1  0  0  0  0
 10 28  1  0  0  0  0
 11 29  1  0  0  0  0
 11 30  1  0  0  0  0
 11 31  1  0  0  0  0
 12 32  1  0  0  0  0
 12 33  1  0  0  0  0
 12 34  1  0  0  0  0
 13 14  2  0  0  0  0
 13 35  1  0  0  0  0
 14 37  1  0  0  0  0
 14 38  1  0  0  0  0
M  END
> <PUBCHEM_COMPOUND_CID>
41742

> <PUBCHEM_CONFORMER_RMSD>
0.6

> <PUBCHEM_CONFORMER_DIVERSEORDER>
1
50
72
44
48
63
70
17
78
29
59
66
2
67
12
84
34
77
54
37
35
80
32
10
15
65
58
24
81
39
8
41
83
5
69
27
75
38
45
7
64
82
13
31
33
56
36
60
76
9
74
53
42
62
68
51
71
14
4
57
79
28
16
26
23
85
19
49
11
47
18
21
43
3
46
25
22
20
40
55
30
61
73
6
52

> <PUBCHEM_MMFF94_PARTIAL_CHARGES>
14
1 -0.68
12 0.14
13 -0.29
14 -0.3
22 0.15
3 0.42
35 0.15
36 0.4
37 0.15
38 0.15
5 0.14
6 0.14
7 -0.28
8 -0.29

> <PUBCHEM_EFFECTIVE_ROTOR_COUNT>
6

> <PUBCHEM_PHARMACOPHORE_FEATURES>
5
1 1 acceptor
1 1 donor
1 12 hydrophobe
1 14 hydrophobe
3 4 10 11 hydrophobe

> <PUBCHEM_HEAVY_ATOM_COUNT>
14

> <PUBCHEM_ATOM_DEF_STEREO_COUNT>
0

> <PUBCHEM_ATOM_UDEF_STEREO_COUNT>
0

> <PUBCHEM_BOND_DEF_STEREO_COUNT>
0

> <PUBCHEM_BOND_UDEF_STEREO_COUNT>
1

> <PUBCHEM_ISOTOPIC_ATOM_COUNT>
0

> <PUBCHEM_COMPONENT_COUNT>
1

> <PUBCHEM_CACTVS_TAUTO_COUNT>
1

> <PUBCHEM_CONFORMER_ID>
0000A30E00000001

> <PUBCHEM_MMFF94_ENERGY>
19.6632

> <PUBCHEM_FEATURE_SELFOVERLAP>
25.373

> <PUBCHEM_SHAPE_FINGERPRINT>
10912923 1 17775568658554306963
11062470 55 8862940584814030569
11132069 177 17895191138357576233
11987891 38 18343302560976865650
12616999 72 16630255791839829148
13167823 11 18342173366972609771
14123238 8 11386370344290386955
15375358 24 10735870690421931012
17834072 33 18342175591585859851
17834074 16 18412263930297609963
17834076 25 14129061404746224481
18186145 218 18040712545949755298
200 152 18413385428173619563
20281389 69 18411140196014354809
20645477 70 18342459218942936238
22485316 2 18343017817730113059
23402539 116 17894622660839306239
23532345 1 18338238279708551160
23557571 272 17604150307601207301
23559900 14 18413106190858994026
3286 77 18412542089833465420
42 15 18272931596490779874
5104073 3 18343020016827573315
522135 26 18412265025951425370
5374978 207 16153705444485120684
542803 24 13984664724540233887
58051976 100 18411982468364017966
633830 44 17313105250190920555
77779 3 18343019999599840819

> <PUBCHEM_SHAPE_MULTIPOLES>
282.24
11.41
1.46
0.99
4.99
0.37
-0.27
1.51
0.71
-1.23
-0.06
-0.09
-0.19
0.03

> <PUBCHEM_SHAPE_SELFOVERLAP>
527.574

> <PUBCHEM_SHAPE_VOLUME>
178

> <PUBCHEM_COORDINATE_TYPE>
2
5
10

$$$$
