440244
  -OEChem-11232109483D

 36 36  0     1  0  0  0  0  0999 V2000
    0.2781    0.0296    1.9452 O   0  0  0  0  0  0  0  0  0  0  0  0
   -3.6135   -0.3948   -1.7924 O   0  0  0  0  0  0  0  0  0  0  0  0
    4.2143   -1.2273   -0.4493 O   0  0  0  0  0  0  0  0  0  0  0  0
   -1.1219    1.2230    0.3460 C   0  0  0  0  0  0  0  0  0  0  0  0
   -0.2120   -0.0375    0.5975 C   0  0  2  0  0  0  0  0  0  0  0  0
   -1.8923    1.0603   -0.9811 C   0  0  0  0  0  0  0  0  0  0  0  0
   -1.0034   -1.3346    0.4432 C   0  0  0  0  0  0  0  0  0  0  0  0
   -2.1406    1.4182    1.5031 C   0  0  0  0  0  0  0  0  0  0  0  0
   -0.2979    2.5314    0.2723 C   0  0  0  0  0  0  0  0  0  0  0  0
    0.9893   -0.0954   -0.3164 C   0  0  0  0  0  0  0  0  0  0  0  0
   -2.6264   -0.2588   -1.0706 C   0  0  0  0  0  0  0  0  0  0  0  0
   -2.1087   -1.4242   -0.3153 C   0  0  0  0  0  0  0  0  0  0  0  0
   -0.4885   -2.5587    1.1578 C   0  0  0  0  0  0  0  0  0  0  0  0
    2.2578   -0.0188    0.1118 C   0  0  0  0  0  0  0  0  0  0  0  0
    3.4484   -0.0773   -0.7991 C   0  0  1  0  0  0  0  0  0  0  0  0
    4.3172    1.1649   -0.6526 C   0  0  0  0  0  0  0  0  0  0  0  0
   -1.2170    1.1175   -1.8430 H   0  0  0  0  0  0  0  0  0  0  0  0
   -2.6300    1.8652   -1.0881 H   0  0  0  0  0  0  0  0  0  0  0  0
   -1.6330    1.6418    2.4481 H   0  0  0  0  0  0  0  0  0  0  0  0
   -2.8148    2.2571    1.2938 H   0  0  0  0  0  0  0  0  0  0  0  0
   -2.7647    0.5343    1.6664 H   0  0  0  0  0  0  0  0  0  0  0  0
    0.2985    2.6766    1.1798 H   0  0  0  0  0  0  0  0  0  0  0  0
    0.3841    2.5374   -0.5847 H   0  0  0  0  0  0  0  0  0  0  0  0
   -0.9537    3.4033    0.1639 H   0  0  0  0  0  0  0  0  0  0  0  0
    0.8028   -0.2043   -1.3828 H   0  0  0  0  0  0  0  0  0  0  0  0
   -2.6560   -2.3550   -0.4206 H   0  0  0  0  0  0  0  0  0  0  0  0
    0.8053   -0.7593    2.1522 H   0  0  0  0  0  0  0  0  0  0  0  0
   -0.5921   -2.4473    2.2418 H   0  0  0  0  0  0  0  0  0  0  0  0
    0.5637   -2.7394    0.9163 H   0  0  0  0  0  0  0  0  0  0  0  0
   -1.0416   -3.4606    0.8722 H   0  0  0  0  0  0  0  0  0  0  0  0
    2.4938    0.0971    1.1656 H   0  0  0  0  0  0  0  0  0  0  0  0
    3.1493   -0.1832   -1.8481 H   0  0  0  0  0  0  0  0  0  0  0  0
    3.7650    2.0738   -0.9121 H   0  0  0  0  0  0  0  0  0  0  0  0
    5.1946    1.0921   -1.3046 H   0  0  0  0  0  0  0  0  0  0  0  0
    4.6978    1.2659    0.3705 H   0  0  0  0  0  0  0  0  0  0  0  0
    3.6557   -2.0103   -0.5946 H   0  0  0  0  0  0  0  0  0  0  0  0
  1  5  1  0  0  0  0
  1 27  1  0  0  0  0
  2 11  2  0  0  0  0
  3 15  1  0  0  0  0
  3 36  1  0  0  0  0
  4  5  1  0  0  0  0
  4  6  1  0  0  0  0
  4  8  1  0  0  0  0
  4  9  1  0  0  0  0
  5  7  1  0  0  0  0
  5 10  1  0  0  0  0
  6 11  1  0  0  0  0
  6 17  1  0  0  0  0
  6 18  1  0  0  0  0
  7 12  2  0  0  0  0
  7 13  1  0  0  0  0
  8 19  1  0  0  0  0
  8 20  1  0  0  0  0
  8 21  1  0  0  0  0
  9 22  1  0  0  0  0
  9 23  1  0  0  0  0
  9 24  1  0  0  0  0
 10 14  2  3  0  0  0
 10 25  1  0  0  0  0
 11 12  1  0  0  0  0
 12 26  1  0  0  0  0
 13 28  1  0  0  0  0
 13 29  1  0  0  0  0
 13 30  1  0  0  0  0
 14 15  1  0  0  0  0
 14 31  1  0  0  0  0
 15 16  1  0  0  0  0
 15 32  1  0  0  0  0
 16 33  1  0  0  0  0
 16 34  1  0  0  0  0
 16 35  1  0  0  0  0
M  END
> <PUBCHEM_COMPOUND_CID>
440244

> <PUBCHEM_CONFORMER_RMSD>
0.6

> <PUBCHEM_CONFORMER_DIVERSEORDER>
1
11
21
13
27
17
3
2
26
22
9
18
8
20
6
19
10
23
16
7
28
5
24
15
29
4
25
12
14

> <PUBCHEM_MMFF94_PARTIAL_CHARGES>
17
1 -0.68
10 -0.29
11 0.49
12 -0.14
13 0.14
14 -0.29
15 0.42
2 -0.57
25 0.15
26 0.15
27 0.4
3 -0.68
31 0.15
36 0.4
5 0.56
6 0.06
7 -0.28

> <PUBCHEM_EFFECTIVE_ROTOR_COUNT>
2.6

> <PUBCHEM_PHARMACOPHORE_FEATURES>
7
1 1 acceptor
1 1 donor
1 2 acceptor
1 3 acceptor
1 3 donor
3 4 8 9 hydrophobe
6 4 5 6 7 11 12 rings

> <PUBCHEM_HEAVY_ATOM_COUNT>
16

> <PUBCHEM_ATOM_DEF_STEREO_COUNT>
0

> <PUBCHEM_ATOM_UDEF_STEREO_COUNT>
2

> <PUBCHEM_BOND_DEF_STEREO_COUNT>
0

> <PUBCHEM_BOND_UDEF_STEREO_COUNT>
1

> <PUBCHEM_ISOTOPIC_ATOM_COUNT>
0

> <PUBCHEM_COMPONENT_COUNT>
1

> <PUBCHEM_CACTVS_TAUTO_COUNT>
5

> <PUBCHEM_CONFORMER_ID>
0006B7B400000001

> <PUBCHEM_MMFF94_ENERGY>
35.5843

> <PUBCHEM_FEATURE_SELFOVERLAP>
35.522

> <PUBCHEM_SHAPE_FINGERPRINT>
10610426 29 15625928898385691471
11315181 36 18412546523004333174
12173636 292 18264509337416818864
12592029 89 17386277697416853475
13024252 1 14418422134569839849
14120999 15 18336536192532240309
14713566 1 18114178657258645202
15279308 128 18410290354386306315
15775835 57 17095231519183288950
16945 1 18192120829502913583
18186145 218 18040155102397498124
187816 3 18409161130048007471
19868273 293 17313101968989010814
200 152 17703791431592039310
20449540 30 17898587628713336556
20645476 183 17458893924981978603
20653085 51 16877944966123919638
20871999 31 18263357160979395327
21339142 149 18272376360224632872
21339142 51 18191592062867231494
21452121 71 16414064403489492517
21501502 16 18058454209841330718
21524375 3 17767140712706821584
22802520 49 18272369788930029154
228727 97 18339913836354493483
23382010 3 17969485169090131399
23402539 116 18411981321691710732
23419403 2 17901681680266843193
23559900 14 18337103562544800040
27216 239 13912905184036916492
2748010 2 17756966159079546071
298252 57 16805867559670893495
3250762 1 17615120418558354807
353137 74 18335978679817219303
81228 2 18342176661191342792
9709674 26 18270973353908882518

> <PUBCHEM_SHAPE_MULTIPOLES>
311.66
5.94
2.18
1.45
7.52
0.12
-0.15
-0.02
3.01
-0.6
-0.67
-1.06
-0.01
-0.31

> <PUBCHEM_SHAPE_SELFOVERLAP>
630.884

> <PUBCHEM_SHAPE_VOLUME>
181.7

> <PUBCHEM_COORDINATE_TYPE>
2
5
10

$$$$
