44079
  -OEChem-11232109143D

 31 32  0     1  0  0  0  0  0999 V2000
    1.8193    1.2523    1.1594 O   0  0  0  0  0  0  0  0  0  0  0  0
   -2.2989    0.1958   -0.0574 C   0  0  0  0  0  0  0  0  0  0  0  0
   -1.0454    1.0343   -0.0737 C   0  0  1  0  0  0  0  0  0  0  0  0
   -1.2297   -0.0458    0.9675 C   0  0  2  0  0  0  0  0  0  0  0  0
   -0.0275    0.8330   -1.1648 C   0  0  0  0  0  0  0  0  0  0  0  0
   -0.3527   -1.2149    0.8570 C   0  0  0  0  0  0  0  0  0  0  0  0
   -2.5460   -0.8339   -1.1099 C   0  0  0  0  0  0  0  0  0  0  0  0
   -3.5494    0.8635    0.4088 C   0  0  0  0  0  0  0  0  0  0  0  0
    1.1571   -0.0481   -0.7312 C   0  0  2  0  0  0  0  0  0  0  0  0
    0.7647   -1.2449    0.1064 C   0  0  0  0  0  0  0  0  0  0  0  0
    2.1343    0.7514    0.0811 C   0  0  0  0  0  0  0  0  0  0  0  0
    1.6555   -2.4501    0.0444 C   0  0  0  0  0  0  0  0  0  0  0  0
    3.5188    0.9074   -0.4874 C   0  0  0  0  0  0  0  0  0  0  0  0
   -1.0959    2.0637    0.2607 H   0  0  0  0  0  0  0  0  0  0  0  0
   -1.4116    0.2789    1.9863 H   0  0  0  0  0  0  0  0  0  0  0  0
    0.3454    1.8196   -1.4706 H   0  0  0  0  0  0  0  0  0  0  0  0
   -0.4901    0.4138   -2.0650 H   0  0  0  0  0  0  0  0  0  0  0  0
   -0.6292   -2.0862    1.4440 H   0  0  0  0  0  0  0  0  0  0  0  0
   -2.9894   -0.3665   -1.9966 H   0  0  0  0  0  0  0  0  0  0  0  0
   -3.2563   -1.5844   -0.7437 H   0  0  0  0  0  0  0  0  0  0  0  0
   -1.6594   -1.3788   -1.4448 H   0  0  0  0  0  0  0  0  0  0  0  0
   -4.2454    0.1298    0.8297 H   0  0  0  0  0  0  0  0  0  0  0  0
   -4.0496    1.3689   -0.4244 H   0  0  0  0  0  0  0  0  0  0  0  0
   -3.3578    1.6158    1.1824 H   0  0  0  0  0  0  0  0  0  0  0  0
    1.6584   -0.3908   -1.6452 H   0  0  0  0  0  0  0  0  0  0  0  0
    2.6625   -2.2007    0.3930 H   0  0  0  0  0  0  0  0  0  0  0  0
    1.7240   -2.8189   -0.9841 H   0  0  0  0  0  0  0  0  0  0  0  0
    1.2818   -3.2697    0.6672 H   0  0  0  0  0  0  0  0  0  0  0  0
    3.9829   -0.0749   -0.6043 H   0  0  0  0  0  0  0  0  0  0  0  0
    3.4633    1.4171   -1.4525 H   0  0  0  0  0  0  0  0  0  0  0  0
    4.1299    1.5070    0.1930 H   0  0  0  0  0  0  0  0  0  0  0  0
  1 11  2  0  0  0  0
  2  3  1  0  0  0  0
  2  4  1  0  0  0  0
  2  7  1  0  0  0  0
  2  8  1  0  0  0  0
  3  4  1  0  0  0  0
  3  5  1  0  0  0  0
  3 14  1  0  0  0  0
  4  6  1  0  0  0  0
  4 15  1  0  0  0  0
  5  9  1  0  0  0  0
  5 16  1  0  0  0  0
  5 17  1  0  0  0  0
  6 10  2  0  0  0  0
  6 18  1  0  0  0  0
  7 19  1  0  0  0  0
  7 20  1  0  0  0  0
  7 21  1  0  0  0  0
  8 22  1  0  0  0  0
  8 23  1  0  0  0  0
  8 24  1  0  0  0  0
  9 10  1  0  0  0  0
  9 11  1  0  0  0  0
  9 25  1  0  0  0  0
 10 12  1  0  0  0  0
 11 13  1  0  0  0  0
 12 26  1  0  0  0  0
 12 27  1  0  0  0  0
 12 28  1  0  0  0  0
 13 29  1  0  0  0  0
 13 30  1  0  0  0  0
 13 31  1  0  0  0  0
M  END
> <PUBCHEM_COMPOUND_CID>
44079

> <PUBCHEM_CONFORMER_RMSD>
0.6

> <PUBCHEM_CONFORMER_DIVERSEORDER>
1
18
20
19
9
16
3
10
15
12
2
11
8
6
13
4
14
7
17
5

> <PUBCHEM_MMFF94_PARTIAL_CHARGES>
16
1 -0.57
10 -0.28
11 0.45
12 0.14
13 0.06
14 0.1
15 0.1
18 0.15
2 -0.19
3 -0.19
4 -0.06
5 0.09
6 -0.19
7 0.09
8 0.09
9 0.2

> <PUBCHEM_EFFECTIVE_ROTOR_COUNT>
1.6

> <PUBCHEM_PHARMACOPHORE_FEATURES>
3
1 1 acceptor
3 2 7 8 hydrophobe
7 2 3 4 5 6 9 10 rings

> <PUBCHEM_HEAVY_ATOM_COUNT>
13

> <PUBCHEM_ATOM_DEF_STEREO_COUNT>
0

> <PUBCHEM_ATOM_UDEF_STEREO_COUNT>
3

> <PUBCHEM_BOND_DEF_STEREO_COUNT>
0

> <PUBCHEM_BOND_UDEF_STEREO_COUNT>
0

> <PUBCHEM_ISOTOPIC_ATOM_COUNT>
0

> <PUBCHEM_COMPONENT_COUNT>
1

> <PUBCHEM_CACTVS_TAUTO_COUNT>
8

> <PUBCHEM_CONFORMER_ID>
0000AC2F00000001

> <PUBCHEM_MMFF94_ENERGY>
29.0006

> <PUBCHEM_FEATURE_SELFOVERLAP>
15.223

> <PUBCHEM_SHAPE_FINGERPRINT>
10219947 1 17821728351084497532
11031198 65 18337965522908432268
12138202 97 17676763283538849331
12423570 1 18120629380246574683
12491281 212 18272657839675723865
12524768 44 18113620049506753467
12897270 3 18060414750637147469
12932764 1 18201718436136474765
13024252 1 13334999660232167268
13380535 76 18261114092728636658
13571099 52 18130779096726316968
13581323 91 14201401603226602585
14993402 34 17896034511078847236
15219456 202 18042119864845791996
15775835 57 18343306963281141509
15852999 172 17895744201238669171
161256 15 17970912158894140022
16945 1 18410846698553211469
20645477 70 18338230441551387527
20653085 51 17489031590333703000
20871998 184 17899713519703118802
21501502 16 18337950069647749776
22344851 262 18334862744313598805
23235685 24 18114185258512758733
23419403 2 13991628932095641979
23559900 14 18271254923870641780
241688 4 17608373441147389289
2748010 2 17968958421479767147
369184 2 18343021099148534593
5084963 1 17916588777122025008
528886 8 18260833717194715513
53812653 166 18411144640329137568
63268167 104 18339364058844216593
7364860 26 18270964514301606598
81228 2 17544750592043943594

> <PUBCHEM_SHAPE_MULTIPOLES>
261.66
4.63
1.77
1.09
0.58
1
-0.04
-1.45
-0.19
-0.99
0.07
0.18
-0.06
-0.16

> <PUBCHEM_SHAPE_SELFOVERLAP>
542.734

> <PUBCHEM_SHAPE_VOLUME>
150.4

> <PUBCHEM_COORDINATE_TYPE>
2
5
10

$$$$
