44149601
  -OEChem-11232109473D

 34 35  0     1  0  0  0  0  0999 V2000
   -2.5582    1.9308   -0.7907 O   0  0  0  0  0  0  0  0  0  0  0  0
    1.1928    0.2988    0.5441 C   0  0  1  0  0  0  0  0  0  0  0  0
   -0.0872    0.8315   -0.1640 C   0  0  2  0  0  0  0  0  0  0  0  0
   -0.5563   -1.5316    0.8096 C   0  0  1  0  0  0  0  0  0  0  0  0
    0.9112   -1.1294    1.0951 C   0  0  0  0  0  0  0  0  0  0  0  0
   -1.1976    0.9198    0.9182 C   0  0  2  0  0  0  0  0  0  0  0  0
   -1.4863   -0.4944    1.4841 C   0  0  0  0  0  0  0  0  0  0  0  0
    2.4193    0.3142   -0.3694 C   0  0  0  0  0  0  0  0  0  0  0  0
   -0.7684   -1.4219   -0.6908 C   0  0  0  0  0  0  0  0  0  0  0  0
   -0.5230   -0.1982   -1.1916 C   0  0  0  0  0  0  0  0  0  0  0  0
   -2.4448    1.5547    0.3713 C   0  0  0  0  0  0  0  0  0  0  0  0
    2.6546    1.7162   -0.9248 C   0  0  0  0  0  0  0  0  0  0  0  0
    3.6516   -0.1816    0.3821 C   0  0  0  0  0  0  0  0  0  0  0  0
   -1.2078   -2.6090   -1.4731 C   0  0  0  0  0  0  0  0  0  0  0  0
    1.4023    0.9525    1.4035 H   0  0  0  0  0  0  0  0  0  0  0  0
    0.0553    1.8113   -0.6271 H   0  0  0  0  0  0  0  0  0  0  0  0
   -0.7631   -2.5401    1.1815 H   0  0  0  0  0  0  0  0  0  0  0  0
    1.1045   -1.1525    2.1745 H   0  0  0  0  0  0  0  0  0  0  0  0
    1.5604   -1.8853    0.6389 H   0  0  0  0  0  0  0  0  0  0  0  0
   -0.8640    1.5743    1.7340 H   0  0  0  0  0  0  0  0  0  0  0  0
   -2.5359   -0.7780    1.3340 H   0  0  0  0  0  0  0  0  0  0  0  0
   -1.3128   -0.4955    2.5675 H   0  0  0  0  0  0  0  0  0  0  0  0
    2.2673   -0.3601   -1.2220 H   0  0  0  0  0  0  0  0  0  0  0  0
   -0.6201    0.0515   -2.2402 H   0  0  0  0  0  0  0  0  0  0  0  0
   -3.2713    1.6863    1.0906 H   0  0  0  0  0  0  0  0  0  0  0  0
    2.6551    2.4706   -0.1306 H   0  0  0  0  0  0  0  0  0  0  0  0
    1.9037    1.9932   -1.6702 H   0  0  0  0  0  0  0  0  0  0  0  0
    3.6241    1.7715   -1.4331 H   0  0  0  0  0  0  0  0  0  0  0  0
    3.8333    0.4152    1.2828 H   0  0  0  0  0  0  0  0  0  0  0  0
    4.5432   -0.1019   -0.2502 H   0  0  0  0  0  0  0  0  0  0  0  0
    3.5757   -1.2302    0.6810 H   0  0  0  0  0  0  0  0  0  0  0  0
   -0.4770   -3.4181   -1.3786 H   0  0  0  0  0  0  0  0  0  0  0  0
   -1.3159   -2.3754   -2.5372 H   0  0  0  0  0  0  0  0  0  0  0  0
   -2.1747   -2.9685   -1.1072 H   0  0  0  0  0  0  0  0  0  0  0  0
  1 11  2  0  0  0  0
  2  3  1  0  0  0  0
  2  5  1  0  0  0  0
  2  8  1  0  0  0  0
  2 15  1  0  0  0  0
  3  6  1  0  0  0  0
  3 10  1  0  0  0  0
  3 16  1  0  0  0  0
  4  5  1  0  0  0  0
  4  7  1  0  0  0  0
  4  9  1  0  0  0  0
  4 17  1  0  0  0  0
  5 18  1  0  0  0  0
  5 19  1  0  0  0  0
  6  7  1  0  0  0  0
  6 11  1  0  0  0  0
  6 20  1  0  0  0  0
  7 21  1  0  0  0  0
  7 22  1  0  0  0  0
  8 12  1  0  0  0  0
  8 13  1  0  0  0  0
  8 23  1  0  0  0  0
  9 10  2  0  0  0  0
  9 14  1  0  0  0  0
 10 24  1  0  0  0  0
 11 25  1  0  0  0  0
 12 26  1  0  0  0  0
 12 27  1  0  0  0  0
 12 28  1  0  0  0  0
 13 29  1  0  0  0  0
 13 30  1  0  0  0  0
 13 31  1  0  0  0  0
 14 32  1  0  0  0  0
 14 33  1  0  0  0  0
 14 34  1  0  0  0  0
M  END
> <PUBCHEM_COMPOUND_CID>
44149601

> <PUBCHEM_CONFORMER_RMSD>
0.6

> <PUBCHEM_CONFORMER_DIVERSEORDER>
2
5
8
6
7
11
4
10
1
12
9
3

> <PUBCHEM_MMFF94_PARTIAL_CHARGES>
10
1 -0.57
10 -0.29
11 0.45
14 0.14
24 0.15
25 0.06
3 0.14
4 0.14
6 0.06
9 -0.28

> <PUBCHEM_EFFECTIVE_ROTOR_COUNT>
2.8

> <PUBCHEM_PHARMACOPHORE_FEATURES>
3
1 1 acceptor
3 8 12 13 hydrophobe
8 2 3 4 5 6 7 9 10 rings

> <PUBCHEM_HEAVY_ATOM_COUNT>
14

> <PUBCHEM_ATOM_DEF_STEREO_COUNT>
0

> <PUBCHEM_ATOM_UDEF_STEREO_COUNT>
4

> <PUBCHEM_BOND_DEF_STEREO_COUNT>
0

> <PUBCHEM_BOND_UDEF_STEREO_COUNT>
0

> <PUBCHEM_ISOTOPIC_ATOM_COUNT>
0

> <PUBCHEM_COMPONENT_COUNT>
1

> <PUBCHEM_CACTVS_TAUTO_COUNT>
2

> <PUBCHEM_CONFORMER_ID>
02A1AB6100000002

> <PUBCHEM_MMFF94_ENERGY>
40.6453

> <PUBCHEM_FEATURE_SELFOVERLAP>
15.223

> <PUBCHEM_SHAPE_FINGERPRINT>
1 1 18054511300755958535
10702982 57 18410006607107924639
10922049 32 18339368448443250225
12138202 97 18201726149654898732
12326174 3 17761214310809961611
12423570 1 14087042124470698611
12932764 1 18127987488744083000
13024252 1 17604993787274666746
14617773 55 18265328593843695598
14713566 1 18201711830291982008
14817 1 14974943337972116723
15775835 57 18338511932969501784
15906896 17 18409451409808096403
16945 1 17969797275578457152
18534176 82 17275381036480737904
19837323 101 18131633378453145864
19868273 293 18341896298726952692
20525323 117 18191306190002421104
21069387 34 16343426077584889804
21296965 12 18336838510816257933
21524375 3 18336547110101755881
23419403 2 17332017820835900795
2748010 2 18197801919503973174
369184 2 18189623902714782232
430814 3 18265605498743075281
53812653 217 18340491182785200478
68250623 7 18262231106495953875
68419 9 18119778452699033498
81228 2 18126278881575243827

> <PUBCHEM_SHAPE_MULTIPOLES>
282.24
3.93
2.25
1.41
3.49
0.45
0.01
-1.53
0.23
-1.5
0.78
-0.39
0.4
-0.62

> <PUBCHEM_SHAPE_SELFOVERLAP>
586.783

> <PUBCHEM_SHAPE_VOLUME>
160.6

> <PUBCHEM_COORDINATE_TYPE>
2
5
10

$$$$
