44145443
  -OEChem-11232109263D

 25 26  0     1  0  0  0  0  0999 V2000
    2.9426   -1.2105   -0.1635 O   0  0  0  0  0  0  0  0  0  0  0  0
   -1.2212   -0.5877    0.2667 C   0  0  0  0  0  0  0  0  0  0  0  0
   -1.4888    0.8004   -0.4015 C   0  0  2  0  0  0  0  0  0  0  0  0
    0.0981   -0.5735   -0.5804 C   0  0  1  0  0  0  0  0  0  0  0  0
   -0.7686    0.1839   -1.6451 C   0  0  0  0  0  0  0  0  0  0  0  0
   -0.6951    1.9487    0.2506 C   0  0  0  0  0  0  0  0  0  0  0  0
    1.1431    0.3077    0.0226 C   0  0  0  0  0  0  0  0  0  0  0  0
   -2.2073   -1.6763   -0.1316 C   0  0  0  0  0  0  0  0  0  0  0  0
   -1.0828   -0.6140    1.7760 C   0  0  0  0  0  0  0  0  0  0  0  0
    0.7471    1.5279    0.4217 C   0  0  0  0  0  0  0  0  0  0  0  0
    2.5328   -0.1066    0.1846 C   0  0  0  0  0  0  0  0  0  0  0  0
   -2.5408    1.0594   -0.5591 H   0  0  0  0  0  0  0  0  0  0  0  0
    0.4697   -1.5513   -0.9009 H   0  0  0  0  0  0  0  0  0  0  0  0
   -0.2336    0.8964   -2.2842 H   0  0  0  0  0  0  0  0  0  0  0  0
   -1.3753   -0.4321   -2.3150 H   0  0  0  0  0  0  0  0  0  0  0  0
   -1.1281    2.2142    1.2208 H   0  0  0  0  0  0  0  0  0  0  0  0
   -0.7383    2.8386   -0.3871 H   0  0  0  0  0  0  0  0  0  0  0  0
   -3.1823   -1.5051    0.3400 H   0  0  0  0  0  0  0  0  0  0  0  0
   -1.8513   -2.6590    0.1998 H   0  0  0  0  0  0  0  0  0  0  0  0
   -2.3947   -1.7627   -1.2042 H   0  0  0  0  0  0  0  0  0  0  0  0
   -2.0548   -0.4439    2.2544 H   0  0  0  0  0  0  0  0  0  0  0  0
   -0.4019    0.1238    2.2035 H   0  0  0  0  0  0  0  0  0  0  0  0
   -0.7221   -1.5935    2.1126 H   0  0  0  0  0  0  0  0  0  0  0  0
    1.4362    2.2359    0.8706 H   0  0  0  0  0  0  0  0  0  0  0  0
    3.2102    0.6329    0.6435 H   0  0  0  0  0  0  0  0  0  0  0  0
  1 11  2  0  0  0  0
  2  3  1  0  0  0  0
  2  4  1  0  0  0  0
  2  8  1  0  0  0  0
  2  9  1  0  0  0  0
  3  5  1  0  0  0  0
  3  6  1  0  0  0  0
  3 12  1  0  0  0  0
  4  5  1  0  0  0  0
  4  7  1  0  0  0  0
  4 13  1  0  0  0  0
  5 14  1  0  0  0  0
  5 15  1  0  0  0  0
  6 10  1  0  0  0  0
  6 16  1  0  0  0  0
  6 17  1  0  0  0  0
  7 10  2  0  0  0  0
  7 11  1  0  0  0  0
  8 18  1  0  0  0  0
  8 19  1  0  0  0  0
  8 20  1  0  0  0  0
  9 21  1  0  0  0  0
  9 22  1  0  0  0  0
  9 23  1  0  0  0  0
 10 24  1  0  0  0  0
 11 25  1  0  0  0  0
M  END
> <PUBCHEM_COMPOUND_CID>
44145443

> <PUBCHEM_CONFORMER_RMSD>
0.4

> <PUBCHEM_CONFORMER_DIVERSEORDER>
1

> <PUBCHEM_MMFF94_PARTIAL_CHARGES>
8
1 -0.57
10 -0.29
11 0.5
24 0.15
25 0.06
4 0.12
6 0.14
7 -0.1

> <PUBCHEM_EFFECTIVE_ROTOR_COUNT>
1.6

> <PUBCHEM_PHARMACOPHORE_FEATURES>
3
1 1 acceptor
3 2 8 9 hydrophobe
7 2 3 4 5 6 7 10 rings

> <PUBCHEM_HEAVY_ATOM_COUNT>
11

> <PUBCHEM_ATOM_DEF_STEREO_COUNT>
1

> <PUBCHEM_ATOM_UDEF_STEREO_COUNT>
1

> <PUBCHEM_BOND_DEF_STEREO_COUNT>
0

> <PUBCHEM_BOND_UDEF_STEREO_COUNT>
0

> <PUBCHEM_ISOTOPIC_ATOM_COUNT>
0

> <PUBCHEM_COMPONENT_COUNT>
1

> <PUBCHEM_CACTVS_TAUTO_COUNT>
1

> <PUBCHEM_CONFORMER_ID>
02A19B2300000001

> <PUBCHEM_MMFF94_ENERGY>
35.5627

> <PUBCHEM_FEATURE_SELFOVERLAP>
15.223

> <PUBCHEM_SHAPE_FINGERPRINT>
10702982 57 17755293479090799528
12138202 97 18191302680623529799
12423570 1 12654688398513854797
13024252 1 17822860770841190724
16945 1 18264193734513890725
21922407 69 15768924839258559920
23552423 10 18260266356573514902
2748010 2 18341319097898132332
29004967 10 18195800997325152752
369184 2 18202274771724040226
5084963 1 17846782939768598850
68250623 7 18339646762450832981

> <PUBCHEM_SHAPE_MULTIPOLES>
220.51
2.97
1.7
1.24
1.87
0.46
0.1
-1.55
0.03
-0.22
0.13
-0.5
-0.08
0.22

> <PUBCHEM_SHAPE_SELFOVERLAP>
466.502

> <PUBCHEM_SHAPE_VOLUME>
126.1

> <PUBCHEM_COORDINATE_TYPE>
2
5
10

$$$$
