44147198
  -OEChem-11232109263D

 33 34  0     1  0  0  0  0  0999 V2000
   -1.4907   -0.1258    0.7928 O   0  0  0  0  0  0  0  0  0  0  0  0
    3.8358   -0.1671   -0.3635 O   0  0  0  0  0  0  0  0  0  0  0  0
   -0.3194   -0.1181   -0.0759 C   0  0  2  0  0  0  0  0  0  0  0  0
    0.4884    1.2015    0.2301 C   0  0  0  0  0  0  0  0  0  0  0  0
    1.8430    1.1542   -0.5044 C   0  0  0  0  0  0  0  0  0  0  0  0
   -0.8431   -0.2270   -1.5356 C   0  0  0  0  0  0  0  0  0  0  0  0
    0.5315   -1.3543    0.2309 C   0  0  0  0  0  0  0  0  0  0  0  0
   -0.2648    2.4794   -0.2087 C   0  0  0  0  0  0  0  0  0  0  0  0
    0.7366    1.3633    1.7566 C   0  0  0  0  0  0  0  0  0  0  0  0
    2.6136   -0.1184   -0.2311 C   0  0  0  0  0  0  0  0  0  0  0  0
   -2.3061   -0.1008   -1.3566 C   0  0  0  0  0  0  0  0  0  0  0  0
    1.8724   -1.3422    0.1557 C   0  0  0  0  0  0  0  0  0  0  0  0
   -2.5864   -0.0595   -0.0583 C   0  0  0  0  0  0  0  0  0  0  0  0
   -0.1861   -2.6285    0.5938 C   0  0  0  0  0  0  0  0  0  0  0  0
   -3.9248    0.0434    0.5742 C   0  0  0  0  0  0  0  0  0  0  0  0
    2.4685    1.9995   -0.1917 H   0  0  0  0  0  0  0  0  0  0  0  0
    1.7096    1.2271   -1.5899 H   0  0  0  0  0  0  0  0  0  0  0  0
   -0.6122   -1.1907   -2.0044 H   0  0  0  0  0  0  0  0  0  0  0  0
   -0.4523    0.5479   -2.1991 H   0  0  0  0  0  0  0  0  0  0  0  0
   -1.2390    2.5619    0.2844 H   0  0  0  0  0  0  0  0  0  0  0  0
   -0.4282    2.5178   -1.2894 H   0  0  0  0  0  0  0  0  0  0  0  0
    0.3079    3.3774    0.0533 H   0  0  0  0  0  0  0  0  0  0  0  0
    1.3498    2.2491    1.9606 H   0  0  0  0  0  0  0  0  0  0  0  0
    1.2555    0.5057    2.1950 H   0  0  0  0  0  0  0  0  0  0  0  0
   -0.2050    1.4906    2.3025 H   0  0  0  0  0  0  0  0  0  0  0  0
   -3.0269   -0.0684   -2.1594 H   0  0  0  0  0  0  0  0  0  0  0  0
    2.4652   -2.2275    0.3604 H   0  0  0  0  0  0  0  0  0  0  0  0
   -0.7226   -2.5106    1.5407 H   0  0  0  0  0  0  0  0  0  0  0  0
    0.5043   -3.4707    0.7125 H   0  0  0  0  0  0  0  0  0  0  0  0
   -0.9044   -2.9039   -0.1845 H   0  0  0  0  0  0  0  0  0  0  0  0
   -4.1090   -0.8231    1.2168 H   0  0  0  0  0  0  0  0  0  0  0  0
   -4.7230    0.0863   -0.1737 H   0  0  0  0  0  0  0  0  0  0  0  0
   -3.9863    0.9478    1.1874 H   0  0  0  0  0  0  0  0  0  0  0  0
  1  3  1  0  0  0  0
  1 13  1  0  0  0  0
  2 10  2  0  0  0  0
  3  4  1  0  0  0  0
  3  6  1  0  0  0  0
  3  7  1  0  0  0  0
  4  5  1  0  0  0  0
  4  8  1  0  0  0  0
  4  9  1  0  0  0  0
  5 10  1  0  0  0  0
  5 16  1  0  0  0  0
  5 17  1  0  0  0  0
  6 11  1  0  0  0  0
  6 18  1  0  0  0  0
  6 19  1  0  0  0  0
  7 12  2  0  0  0  0
  7 14  1  0  0  0  0
  8 20  1  0  0  0  0
  8 21  1  0  0  0  0
  8 22  1  0  0  0  0
  9 23  1  0  0  0  0
  9 24  1  0  0  0  0
  9 25  1  0  0  0  0
 10 12  1  0  0  0  0
 11 13  2  0  0  0  0
 11 26  1  0  0  0  0
 12 27  1  0  0  0  0
 13 15  1  0  0  0  0
 14 28  1  0  0  0  0
 14 29  1  0  0  0  0
 14 30  1  0  0  0  0
 15 31  1  0  0  0  0
 15 32  1  0  0  0  0
 15 33  1  0  0  0  0
M  END
> <PUBCHEM_COMPOUND_CID>
44147198

> <PUBCHEM_CONFORMER_RMSD>
0.4

> <PUBCHEM_CONFORMER_DIVERSEORDER>
1
4
3
2

> <PUBCHEM_MMFF94_PARTIAL_CHARGES>
14
1 -0.36
10 0.49
11 -0.29
12 -0.14
13 -0.06
14 0.14
15 0.14
2 -0.57
26 0.15
27 0.15
3 0.42
5 0.06
6 0.14
7 -0.28

> <PUBCHEM_EFFECTIVE_ROTOR_COUNT>
0.8

> <PUBCHEM_PHARMACOPHORE_FEATURES>
5
1 1 acceptor
1 2 acceptor
3 4 8 9 hydrophobe
5 1 3 6 11 13 rings
6 3 4 5 7 10 12 rings

> <PUBCHEM_HEAVY_ATOM_COUNT>
15

> <PUBCHEM_ATOM_DEF_STEREO_COUNT>
0

> <PUBCHEM_ATOM_UDEF_STEREO_COUNT>
1

> <PUBCHEM_BOND_DEF_STEREO_COUNT>
0

> <PUBCHEM_BOND_UDEF_STEREO_COUNT>
0

> <PUBCHEM_ISOTOPIC_ATOM_COUNT>
0

> <PUBCHEM_COMPONENT_COUNT>
1

> <PUBCHEM_CACTVS_TAUTO_COUNT>
5

> <PUBCHEM_CONFORMER_ID>
02A1A1FE00000001

> <PUBCHEM_MMFF94_ENERGY>
39.2094

> <PUBCHEM_FEATURE_SELFOVERLAP>
25.378

> <PUBCHEM_SHAPE_FINGERPRINT>
10353120 184 18340775853333572116
12423570 1 15613636151938581501
13024252 1 13190348980261070852
13132413 78 18271814458349291977
13140716 1 18264767843282821346
14617773 55 17915183403803845890
14993402 34 17632572734608093341
15219456 202 17604425189708412999
15490181 8 17621297461703152873
15775835 57 18131351938036821957
15852999 172 17403974564577640756
16945 1 18408879629443859134
17844478 74 17821450144899548669
18186145 218 18410571807893247700
18511873 20 18060143154053666477
193761 8 17688315998298418738
20344682 1 17458068170390577655
20511035 2 17841717605689880228
21501502 16 17975135653797759166
22344851 262 16702305658666796917
22344851 341 17980487762832009496
2334 1 17976821218313860222
23402539 116 18342170047379381286
23419403 2 14452119163620805023
23493267 7 17023454253408098837
23559900 14 18340492274883390812
25 1 18408319969335276719
2748010 2 18122910004049799006
296302 2 13902188213814458858
3250762 1 17762059139366799114
353137 74 18335979757964786892
44249140 249 17678169387122424943
5084963 1 18198897188046796309
528886 8 18407758140209914728
5337951 7 18270124637651819482
53655031 270 18341901735955141329
53812653 166 18410854403566402146
568465 68 18043274451145257539
63268167 104 18272927236977570657
77492 1 17918554631040241919

> <PUBCHEM_SHAPE_MULTIPOLES>
296.95
4.43
2.09
1.23
1.01
0.17
0.02
0.24
-0.24
-0.48
0.44
0.32
-0.2
0.03

> <PUBCHEM_SHAPE_SELFOVERLAP>
624.094

> <PUBCHEM_SHAPE_VOLUME>
167.9

> <PUBCHEM_COORDINATE_TYPE>
2
5
10

$$$$
