44145973
  -OEChem-11232109193D

 34 36  0     1  0  0  0  0  0999 V2000
   -2.2045    0.5260    0.0110 O   0  0  0  0  0  0  0  0  0  0  0  0
   -2.9922   -1.4635   -0.8598 O   0  0  0  0  0  0  0  0  0  0  0  0
    1.0757   -1.1566    1.0207 C   0  0  2  0  0  0  0  0  0  0  0  0
   -0.3352   -0.5280    1.1629 C   0  0  1  0  0  0  0  0  0  0  0  0
    1.9872    0.0857    0.8090 C   0  0  2  0  0  0  0  0  0  0  0  0
    0.9874    1.2639    0.8972 C   0  0  2  0  0  0  0  0  0  0  0  0
    0.0157    0.7428    1.9627 C   0  0  0  0  0  0  0  0  0  0  0  0
   -0.8654    0.0821   -0.1543 C   0  0  2  0  0  0  0  0  0  0  0  0
    0.0591    1.2654   -0.3008 C   0  0  0  0  0  0  0  0  0  0  0  0
    1.3341   -2.1099   -0.1467 C   0  0  0  0  0  0  0  0  0  0  0  0
    2.6667   -0.1856   -0.4966 C   0  0  0  0  0  0  0  0  0  0  0  0
    2.3047   -1.3686   -1.0090 C   0  0  0  0  0  0  0  0  0  0  0  0
    3.6416    0.7737   -1.0785 C   0  0  0  0  0  0  0  0  0  0  0  0
    0.0327    2.1752   -1.2793 C   0  0  0  0  0  0  0  0  0  0  0  0
   -3.1769   -0.3510   -0.3849 C   0  0  0  0  0  0  0  0  0  0  0  0
   -4.5309    0.2484   -0.1534 C   0  0  0  0  0  0  0  0  0  0  0  0
    1.3368   -1.6506    1.9666 H   0  0  0  0  0  0  0  0  0  0  0  0
   -1.0537   -1.1778    1.6691 H   0  0  0  0  0  0  0  0  0  0  0  0
    2.7252    0.1467    1.6189 H   0  0  0  0  0  0  0  0  0  0  0  0
    1.4455    2.2289    1.1244 H   0  0  0  0  0  0  0  0  0  0  0  0
    0.5009    0.5281    2.9215 H   0  0  0  0  0  0  0  0  0  0  0  0
   -0.8434    1.4009    2.1372 H   0  0  0  0  0  0  0  0  0  0  0  0
   -0.7640   -0.5859   -1.0150 H   0  0  0  0  0  0  0  0  0  0  0  0
    0.4271   -2.3851   -0.6900 H   0  0  0  0  0  0  0  0  0  0  0  0
    1.8003   -3.0346    0.2112 H   0  0  0  0  0  0  0  0  0  0  0  0
    2.6844   -1.7698   -1.9386 H   0  0  0  0  0  0  0  0  0  0  0  0
    3.1671    1.7395   -1.2740 H   0  0  0  0  0  0  0  0  0  0  0  0
    4.0536    0.4053   -2.0237 H   0  0  0  0  0  0  0  0  0  0  0  0
    4.4758    0.9325   -0.3880 H   0  0  0  0  0  0  0  0  0  0  0  0
   -0.6845    2.1025   -2.0896 H   0  0  0  0  0  0  0  0  0  0  0  0
    0.7283    3.0070   -1.2880 H   0  0  0  0  0  0  0  0  0  0  0  0
   -4.6667    0.4557    0.9109 H   0  0  0  0  0  0  0  0  0  0  0  0
   -5.3008   -0.4603   -0.4717 H   0  0  0  0  0  0  0  0  0  0  0  0
   -4.6356    1.1640   -0.7408 H   0  0  0  0  0  0  0  0  0  0  0  0
  1  8  1  0  0  0  0
  1 15  1  0  0  0  0
  2 15  2  0  0  0  0
  3  4  1  0  0  0  0
  3  5  1  0  0  0  0
  3 10  1  0  0  0  0
  3 17  1  0  0  0  0
  4  7  1  0  0  0  0
  4  8  1  0  0  0  0
  4 18  1  0  0  0  0
  5  6  1  0  0  0  0
  5 11  1  0  0  0  0
  5 19  1  0  0  0  0
  6  7  1  0  0  0  0
  6  9  1  0  0  0  0
  6 20  1  0  0  0  0
  7 21  1  0  0  0  0
  7 22  1  0  0  0  0
  8  9  1  0  0  0  0
  8 23  1  0  0  0  0
  9 14  2  0  0  0  0
 10 12  1  0  0  0  0
 10 24  1  0  0  0  0
 10 25  1  0  0  0  0
 11 12  2  0  0  0  0
 11 13  1  0  0  0  0
 12 26  1  0  0  0  0
 13 27  1  0  0  0  0
 13 28  1  0  0  0  0
 13 29  1  0  0  0  0
 14 30  1  0  0  0  0
 14 31  1  0  0  0  0
 15 16  1  0  0  0  0
 16 32  1  0  0  0  0
 16 33  1  0  0  0  0
 16 34  1  0  0  0  0
M  END
> <PUBCHEM_COMPOUND_CID>
44145973

> <PUBCHEM_CONFORMER_RMSD>
0.6

> <PUBCHEM_CONFORMER_DIVERSEORDER>
1
2

> <PUBCHEM_MMFF94_PARTIAL_CHARGES>
16
1 -0.43
10 0.14
11 -0.28
12 -0.29
13 0.14
14 -0.3
15 0.66
16 0.06
2 -0.57
26 0.15
30 0.15
31 0.15
5 0.14
6 0.14
8 0.42
9 -0.28

> <PUBCHEM_EFFECTIVE_ROTOR_COUNT>
2.6

> <PUBCHEM_PHARMACOPHORE_FEATURES>
3
1 2 acceptor
5 3 5 10 11 12 rings
7 3 4 5 6 7 8 9 rings

> <PUBCHEM_HEAVY_ATOM_COUNT>
16

> <PUBCHEM_ATOM_DEF_STEREO_COUNT>
5

> <PUBCHEM_ATOM_UDEF_STEREO_COUNT>
0

> <PUBCHEM_BOND_DEF_STEREO_COUNT>
0

> <PUBCHEM_BOND_UDEF_STEREO_COUNT>
0

> <PUBCHEM_ISOTOPIC_ATOM_COUNT>
0

> <PUBCHEM_COMPONENT_COUNT>
1

> <PUBCHEM_CACTVS_TAUTO_COUNT>
1

> <PUBCHEM_CONFORMER_ID>
02A19D3500000001

> <PUBCHEM_MMFF94_ENERGY>
46.5482

> <PUBCHEM_FEATURE_SELFOVERLAP>
15.392

> <PUBCHEM_SHAPE_FINGERPRINT>
10863032 1 17023468671961289346
10948715 1 16443632405991302164
12011746 2 11455896849275651204
12138202 97 17023480749182725946
12251169 10 9511452308336904046
12423570 1 14976351692245110736
13299463 15 18337114449669593494
13464513 79 18264773340683113527
13571099 52 14779555620753709806
144361 1 18411427236629805570
15001771 113 17843125796670129698
15061688 2 16443354233960584364
15852999 172 15575009346698563442
16945 1 18272089404827461144
20344682 1 18408884049160450700
20344682 6 18334583425552843740
20645477 70 16988834021353032853
20820808 20 17894633655828931522
21501502 16 18191872210651633360
21524375 3 11025812993230040415
21637258 2 16056883473093088142
230 275 9511177503687120587
23402539 116 18040992938911108068
23419403 2 14896108547412890696
23557571 272 18264754481354915088
2748010 2 17681851922178525576
3060560 45 18411130368142380559
353137 74 17530964640086830772
4047638 21 16370729222701982924
528886 8 18260550056090122760
54040823 5 18040998457627734851
59915604 170 17603596217965032380
7364860 26 18198056083200711185

> <PUBCHEM_SHAPE_MULTIPOLES>
317.53
5.45
1.84
1.42
5.13
0.03
-0.45
-0.55
2.15
-0.57
0.49
-0.39
0.19
-0.16

> <PUBCHEM_SHAPE_SELFOVERLAP>
689.147

> <PUBCHEM_SHAPE_VOLUME>
180.3

> <PUBCHEM_COORDINATE_TYPE>
2
5
10

$$$$
