44145813
  -OEChem-11232108413D

 34 36  0     1  0  0  0  0  0999 V2000
    1.8966    1.6739   -0.4798 O   0  0  0  0  0  0  0  0  0  0  0  0
   -0.6087   -0.7220    0.8248 C   0  0  2  0  0  0  0  0  0  0  0  0
   -1.8246   -0.9311   -0.1172 C   0  0  2  0  0  0  0  0  0  0  0  0
   -0.1854    0.7387    0.4936 C   0  0  2  0  0  0  0  0  0  0  0  0
   -1.2292    1.1696   -0.5617 C   0  0  1  0  0  0  0  0  0  0  0  0
   -1.4642   -0.1158   -1.3592 C   0  0  0  0  0  0  0  0  0  0  0  0
   -3.0051   -0.1064    0.4390 C   0  0  0  0  0  0  0  0  0  0  0  0
   -2.5870    1.3419    0.1420 C   0  0  0  0  0  0  0  0  0  0  0  0
    0.6534   -1.6042    0.6278 C   0  0  2  0  0  0  0  0  0  0  0  0
    1.2045    0.5853   -0.0288 C   0  0  0  0  0  0  0  0  0  0  0  0
    1.6695   -0.6676    0.0263 C   0  0  0  0  0  0  0  0  0  0  0  0
    0.4312   -2.8863   -0.1662 C   0  0  0  0  0  0  0  0  0  0  0  0
    3.0255   -1.1355   -0.3738 C   0  0  0  0  0  0  0  0  0  0  0  0
    2.0235    2.6595    0.5332 C   0  0  0  0  0  0  0  0  0  0  0  0
   -0.9322   -0.8077    1.8705 H   0  0  0  0  0  0  0  0  0  0  0  0
   -2.0957   -1.9724   -0.2970 H   0  0  0  0  0  0  0  0  0  0  0  0
   -0.2128    1.3654    1.3913 H   0  0  0  0  0  0  0  0  0  0  0  0
   -0.9351    2.0374   -1.1566 H   0  0  0  0  0  0  0  0  0  0  0  0
   -2.2920   -0.0311   -2.0720 H   0  0  0  0  0  0  0  0  0  0  0  0
   -0.5789   -0.4777   -1.8883 H   0  0  0  0  0  0  0  0  0  0  0  0
   -3.1751   -0.2764    1.5067 H   0  0  0  0  0  0  0  0  0  0  0  0
   -3.9319   -0.3469   -0.0946 H   0  0  0  0  0  0  0  0  0  0  0  0
   -3.3159    1.8144   -0.5261 H   0  0  0  0  0  0  0  0  0  0  0  0
   -2.5167    1.9459    1.0521 H   0  0  0  0  0  0  0  0  0  0  0  0
    1.0235   -1.8896    1.6225 H   0  0  0  0  0  0  0  0  0  0  0  0
    0.1560   -2.6862   -1.2065 H   0  0  0  0  0  0  0  0  0  0  0  0
   -0.3564   -3.4940    0.2913 H   0  0  0  0  0  0  0  0  0  0  0  0
    1.3416   -3.4957   -0.1814 H   0  0  0  0  0  0  0  0  0  0  0  0
    3.5166   -1.6380    0.4655 H   0  0  0  0  0  0  0  0  0  0  0  0
    3.6684   -0.3066   -0.6866 H   0  0  0  0  0  0  0  0  0  0  0  0
    2.9592   -1.8378   -1.2102 H   0  0  0  0  0  0  0  0  0  0  0  0
    2.7663    3.3906    0.1996 H   0  0  0  0  0  0  0  0  0  0  0  0
    2.3764    2.2297    1.4777 H   0  0  0  0  0  0  0  0  0  0  0  0
    1.0789    3.1927    0.6822 H   0  0  0  0  0  0  0  0  0  0  0  0
  1 10  1  0  0  0  0
  1 14  1  0  0  0  0
  2  3  1  0  0  0  0
  2  4  1  0  0  0  0
  2  9  1  0  0  0  0
  2 15  1  0  0  0  0
  3  6  1  0  0  0  0
  3  7  1  0  0  0  0
  3 16  1  0  0  0  0
  4  5  1  0  0  0  0
  4 10  1  0  0  0  0
  4 17  1  0  0  0  0
  5  6  1  0  0  0  0
  5  8  1  0  0  0  0
  5 18  1  0  0  0  0
  6 19  1  0  0  0  0
  6 20  1  0  0  0  0
  7  8  1  0  0  0  0
  7 21  1  0  0  0  0
  7 22  1  0  0  0  0
  8 23  1  0  0  0  0
  8 24  1  0  0  0  0
  9 11  1  0  0  0  0
  9 12  1  0  0  0  0
  9 25  1  0  0  0  0
 10 11  2  0  0  0  0
 11 13  1  0  0  0  0
 12 26  1  0  0  0  0
 12 27  1  0  0  0  0
 12 28  1  0  0  0  0
 13 29  1  0  0  0  0
 13 30  1  0  0  0  0
 13 31  1  0  0  0  0
 14 32  1  0  0  0  0
 14 33  1  0  0  0  0
 14 34  1  0  0  0  0
M  END
> <PUBCHEM_COMPOUND_CID>
44145813

> <PUBCHEM_CONFORMER_RMSD>
0.6

> <PUBCHEM_CONFORMER_DIVERSEORDER>
2
3
8
5
6
4
7
1

> <PUBCHEM_MMFF94_PARTIAL_CHARGES>
7
1 -0.36
10 -0.06
11 -0.28
13 0.14
14 0.28
4 0.14
9 0.14

> <PUBCHEM_EFFECTIVE_ROTOR_COUNT>
1.8

> <PUBCHEM_PHARMACOPHORE_FEATURES>
3
1 1 acceptor
5 2 4 9 10 11 rings
7 2 3 4 5 6 7 8 rings

> <PUBCHEM_HEAVY_ATOM_COUNT>
14

> <PUBCHEM_ATOM_DEF_STEREO_COUNT>
0

> <PUBCHEM_ATOM_UDEF_STEREO_COUNT>
5

> <PUBCHEM_BOND_DEF_STEREO_COUNT>
0

> <PUBCHEM_BOND_UDEF_STEREO_COUNT>
0

> <PUBCHEM_ISOTOPIC_ATOM_COUNT>
0

> <PUBCHEM_COMPONENT_COUNT>
1

> <PUBCHEM_CACTVS_TAUTO_COUNT>
1

> <PUBCHEM_CONFORMER_ID>
02A19C9500000002

> <PUBCHEM_MMFF94_ENERGY>
49.8696

> <PUBCHEM_FEATURE_SELFOVERLAP>
15.3

> <PUBCHEM_SHAPE_FINGERPRINT>
1 1 18409446985817630198
10967382 1 18410294709324661602
12423570 1 17632582612832459511
12524768 44 18189331427978757705
13024252 1 17749682774612886043
13140716 1 18409730685687387051
13380535 76 18122900091128123408
14648413 74 18335980853171092857
15490181 8 18195797699154344232
15557651 10 17386570133086494295
16945 1 18337948974673760379
17844478 74 17750250127044935921
193761 8 18122627416497470506
20511035 2 18114758138636316106
20588541 1 18117005381336700035
20871998 184 17543356406640602048
21501502 16 18267302230147999634
2334 1 18264770037531028857
23419403 2 16312540829940974970
23552423 10 18411974746091401711
23559900 14 18268433443853040966
241688 4 17473823922639323402
25 1 18189903019422163916
2748010 2 18262240039832302319
5084963 1 18201999928002878339
5255222 1 18115584842457349981
528886 8 18266173941991524706
54276843 12 17846222098602032379
63268167 104 18119812404536671593
7364860 26 18341892978569598152
81228 2 17326051149225603114

> <PUBCHEM_SHAPE_MULTIPOLES>
282.24
3.8
2.59
0.92
0.36
0.12
0.12
0.54
0.14
-1.6
-0.19
0.19
-0.02
0.17

> <PUBCHEM_SHAPE_SELFOVERLAP>
609.503

> <PUBCHEM_SHAPE_VOLUME>
163.1

> <PUBCHEM_COORDINATE_TYPE>
2
5
10

$$$$
