44148734
  -OEChem-11232108473D

 33 34  0     1  0  0  0  0  0999 V2000
    0.8312   -1.2417    1.3736 O   0  0  0  0  0  0  0  0  0  0  0  0
    0.6566    0.9272    0.2885 C   0  0  2  0  0  0  0  0  0  0  0  0
   -1.2022   -0.6846    0.0344 C   0  0  0  0  0  0  0  0  0  0  0  0
    0.3935   -0.6197    0.1584 C   0  0  2  0  0  0  0  0  0  0  0  0
   -1.5820    0.8360    0.1557 C   0  0  1  0  0  0  0  0  0  0  0  0
   -0.5404    1.3592    1.1545 C   0  0  0  0  0  0  0  0  0  0  0  0
    0.2480    1.6224   -0.9958 C   0  0  0  0  0  0  0  0  0  0  0  0
   -1.0897    1.5808   -1.0646 C   0  0  0  0  0  0  0  0  0  0  0  0
    1.1902   -1.2741   -0.9737 C   0  0  0  0  0  0  0  0  0  0  0  0
    1.9980    1.3607    0.8475 C   0  0  0  0  0  0  0  0  0  0  0  0
   -1.8994   -1.5340    1.1153 C   0  0  0  0  0  0  0  0  0  0  0  0
   -1.6850   -1.2272   -1.3290 C   0  0  0  0  0  0  0  0  0  0  0  0
    2.6811   -1.1049   -0.7648 C   0  0  0  0  0  0  0  0  0  0  0  0
   -2.6171    1.0505    0.4279 H   0  0  0  0  0  0  0  0  0  0  0  0
   -0.6022    2.4444    1.3152 H   0  0  0  0  0  0  0  0  0  0  0  0
   -0.5786    0.8661    2.1314 H   0  0  0  0  0  0  0  0  0  0  0  0
    0.9111    2.0297   -1.7427 H   0  0  0  0  0  0  0  0  0  0  0  0
   -1.6999    1.9476   -1.8745 H   0  0  0  0  0  0  0  0  0  0  0  0
    0.9752   -2.3502   -0.9836 H   0  0  0  0  0  0  0  0  0  0  0  0
    0.9297   -0.8845   -1.9622 H   0  0  0  0  0  0  0  0  0  0  0  0
    2.3386    0.7203    1.6664 H   0  0  0  0  0  0  0  0  0  0  0  0
    1.9223    2.3747    1.2611 H   0  0  0  0  0  0  0  0  0  0  0  0
    2.7838    1.4189    0.0922 H   0  0  0  0  0  0  0  0  0  0  0  0
   -1.6069   -2.5868    1.0381 H   0  0  0  0  0  0  0  0  0  0  0  0
   -2.9891   -1.4807    1.0117 H   0  0  0  0  0  0  0  0  0  0  0  0
   -1.6555   -1.1908    2.1255 H   0  0  0  0  0  0  0  0  0  0  0  0
   -1.4510   -2.2937   -1.4266 H   0  0  0  0  0  0  0  0  0  0  0  0
   -1.2481   -0.7215   -2.1942 H   0  0  0  0  0  0  0  0  0  0  0  0
   -2.7735   -1.1261   -1.4184 H   0  0  0  0  0  0  0  0  0  0  0  0
    0.6824   -2.1990    1.2916 H   0  0  0  0  0  0  0  0  0  0  0  0
    3.0369   -0.1546   -1.1676 H   0  0  0  0  0  0  0  0  0  0  0  0
    3.2065   -1.8735   -1.3451 H   0  0  0  0  0  0  0  0  0  0  0  0
    3.0083   -1.2234    0.2711 H   0  0  0  0  0  0  0  0  0  0  0  0
  1  4  1  0  0  0  0
  1 30  1  0  0  0  0
  2  4  1  0  0  0  0
  2  6  1  0  0  0  0
  2  7  1  0  0  0  0
  2 10  1  0  0  0  0
  3  4  1  0  0  0  0
  3  5  1  0  0  0  0
  3 11  1  0  0  0  0
  3 12  1  0  0  0  0
  4  9  1  0  0  0  0
  5  6  1  0  0  0  0
  5  8  1  0  0  0  0
  5 14  1  0  0  0  0
  6 15  1  0  0  0  0
  6 16  1  0  0  0  0
  7  8  2  0  0  0  0
  7 17  1  0  0  0  0
  8 18  1  0  0  0  0
  9 13  1  0  0  0  0
  9 19  1  0  0  0  0
  9 20  1  0  0  0  0
 10 21  1  0  0  0  0
 10 22  1  0  0  0  0
 10 23  1  0  0  0  0
 11 24  1  0  0  0  0
 11 25  1  0  0  0  0
 11 26  1  0  0  0  0
 12 27  1  0  0  0  0
 12 28  1  0  0  0  0
 12 29  1  0  0  0  0
 13 31  1  0  0  0  0
 13 32  1  0  0  0  0
 13 33  1  0  0  0  0
M  END
> <PUBCHEM_COMPOUND_CID>
44148734

> <PUBCHEM_CONFORMER_RMSD>
0.6

> <PUBCHEM_CONFORMER_DIVERSEORDER>
1
2

> <PUBCHEM_MMFF94_PARTIAL_CHARGES>
9
1 -0.68
17 0.15
18 0.15
2 0.14
30 0.4
4 0.28
5 0.14
7 -0.29
8 -0.29

> <PUBCHEM_EFFECTIVE_ROTOR_COUNT>
1.6

> <PUBCHEM_PHARMACOPHORE_FEATURES>
5
1 1 acceptor
1 1 donor
1 13 hydrophobe
3 3 11 12 hydrophobe
7 2 3 4 5 6 7 8 rings

> <PUBCHEM_HEAVY_ATOM_COUNT>
13

> <PUBCHEM_ATOM_DEF_STEREO_COUNT>
1

> <PUBCHEM_ATOM_UDEF_STEREO_COUNT>
2

> <PUBCHEM_BOND_DEF_STEREO_COUNT>
0

> <PUBCHEM_BOND_UDEF_STEREO_COUNT>
0

> <PUBCHEM_ISOTOPIC_ATOM_COUNT>
0

> <PUBCHEM_COMPONENT_COUNT>
1

> <PUBCHEM_CACTVS_TAUTO_COUNT>
1

> <PUBCHEM_CONFORMER_ID>
02A1A7FE00000001

> <PUBCHEM_MMFF94_ENERGY>
75.4955

> <PUBCHEM_FEATURE_SELFOVERLAP>
25.371

> <PUBCHEM_SHAPE_FINGERPRINT>
12423570 1 18121777498008553425
12524768 44 18340480088889852173
13024252 1 16228619496796402150
13380535 239 18198885041647194356
137420 1 8926084511247923313
144361 1 18269816739983517479
14817 1 8154797183287663011
15557651 10 17831867845420814252
16945 1 17832183482577764908
20511035 2 18126876908779636089
23559900 14 18050566245559361190
241688 4 18261691314726279856
2748010 2 18410853291180265941
369184 2 17534086093753199342
430814 3 15613288526044435232
5084963 1 18262255316988880148
528886 8 17677630677937905332

> <PUBCHEM_SHAPE_MULTIPOLES>
261.66
2.63
2.11
1.41
0.85
0.18
0.01
-0.91
-0.06
0.07
-0.15
-0.2
-0.07
0.45

> <PUBCHEM_SHAPE_SELFOVERLAP>
556.088

> <PUBCHEM_SHAPE_VOLUME>
152.1

> <PUBCHEM_COORDINATE_TYPE>
2
5
10

$$$$
