44153588
  -OEChem-11232108553D

 36 38  0     1  0  0  0  0  0999 V2000
   -1.2568   -0.8897    0.1535 O   0  0  0  0  0  0  0  0  0  0  0  0
   -2.0456    0.7828   -1.2262 O   0  0  0  0  0  0  0  0  0  0  0  0
    1.6691    1.1846   -0.5455 C   0  0  2  0  0  0  0  0  0  0  0  0
    0.9513    0.1173    0.3211 C   0  0  2  0  0  0  0  0  0  0  0  0
    3.3641   -0.0801    0.1577 C   0  0  1  0  0  0  0  0  0  0  0  0
    2.1385   -0.7601    0.8067 C   0  0  2  0  0  0  0  0  0  0  0  0
    2.8197    0.4076   -1.1880 C   0  0  0  0  0  0  0  0  0  0  0  0
    2.4405    2.1304    0.3959 C   0  0  0  0  0  0  0  0  0  0  0  0
    3.6093    1.2572    0.8813 C   0  0  0  0  0  0  0  0  0  0  0  0
    0.0169   -0.8150   -0.4706 C   0  0  1  0  0  0  0  0  0  0  0  0
    1.8215   -2.1227    0.2827 C   0  0  0  0  0  0  0  0  0  0  0  0
    0.6689   -2.1543   -0.3901 C   0  0  0  0  0  0  0  0  0  0  0  0
   -2.2092   -0.0269   -0.3238 C   0  0  0  0  0  0  0  0  0  0  0  0
   -3.4968   -0.2319    0.4412 C   0  0  0  0  0  0  0  0  0  0  0  0
   -4.5964    0.7191   -0.0248 C   0  0  0  0  0  0  0  0  0  0  0  0
   -5.8950    0.4819    0.7287 C   0  0  0  0  0  0  0  0  0  0  0  0
    1.0102    1.7094   -1.2405 H   0  0  0  0  0  0  0  0  0  0  0  0
    0.4269    0.5869    1.1625 H   0  0  0  0  0  0  0  0  0  0  0  0
    4.2518   -0.7141    0.0982 H   0  0  0  0  0  0  0  0  0  0  0  0
    2.2073   -0.7846    1.8999 H   0  0  0  0  0  0  0  0  0  0  0  0
    3.5238    1.0514   -1.7268 H   0  0  0  0  0  0  0  0  0  0  0  0
    2.4946   -0.3955   -1.8550 H   0  0  0  0  0  0  0  0  0  0  0  0
    1.8261    2.4949    1.2252 H   0  0  0  0  0  0  0  0  0  0  0  0
    2.8225    2.9989   -0.1524 H   0  0  0  0  0  0  0  0  0  0  0  0
    4.5630    1.6992    0.5714 H   0  0  0  0  0  0  0  0  0  0  0  0
    3.6203    1.1520    1.9707 H   0  0  0  0  0  0  0  0  0  0  0  0
   -0.0691   -0.5270   -1.5254 H   0  0  0  0  0  0  0  0  0  0  0  0
    2.4514   -2.9860    0.4440 H   0  0  0  0  0  0  0  0  0  0  0  0
    0.2600   -3.0464   -0.8431 H   0  0  0  0  0  0  0  0  0  0  0  0
   -3.8171   -1.2695    0.2948 H   0  0  0  0  0  0  0  0  0  0  0  0
   -3.2927   -0.0675    1.5052 H   0  0  0  0  0  0  0  0  0  0  0  0
   -4.2772    1.7583    0.1191 H   0  0  0  0  0  0  0  0  0  0  0  0
   -4.7741    0.5887   -1.0990 H   0  0  0  0  0  0  0  0  0  0  0  0
   -6.2582   -0.5390    0.5729 H   0  0  0  0  0  0  0  0  0  0  0  0
   -5.7588    0.6383    1.8036 H   0  0  0  0  0  0  0  0  0  0  0  0
   -6.6676    1.1742    0.3799 H   0  0  0  0  0  0  0  0  0  0  0  0
  1 10  1  0  0  0  0
  1 13  1  0  0  0  0
  2 13  2  0  0  0  0
  3  4  1  0  0  0  0
  3  7  1  0  0  0  0
  3  8  1  0  0  0  0
  3 17  1  0  0  0  0
  4  6  1  0  0  0  0
  4 10  1  0  0  0  0
  4 18  1  0  0  0  0
  5  6  1  0  0  0  0
  5  7  1  0  0  0  0
  5  9  1  0  0  0  0
  5 19  1  0  0  0  0
  6 11  1  0  0  0  0
  6 20  1  0  0  0  0
  7 21  1  0  0  0  0
  7 22  1  0  0  0  0
  8  9  1  0  0  0  0
  8 23  1  0  0  0  0
  8 24  1  0  0  0  0
  9 25  1  0  0  0  0
  9 26  1  0  0  0  0
 10 12  1  0  0  0  0
 10 27  1  0  0  0  0
 11 12  2  0  0  0  0
 11 28  1  0  0  0  0
 12 29  1  0  0  0  0
 13 14  1  0  0  0  0
 14 15  1  0  0  0  0
 14 30  1  0  0  0  0
 14 31  1  0  0  0  0
 15 16  1  0  0  0  0
 15 32  1  0  0  0  0
 15 33  1  0  0  0  0
 16 34  1  0  0  0  0
 16 35  1  0  0  0  0
 16 36  1  0  0  0  0
M  END
> <PUBCHEM_COMPOUND_CID>
44153588

> <PUBCHEM_CONFORMER_RMSD>
0.6

> <PUBCHEM_CONFORMER_DIVERSEORDER>
1
338
88
304
164
317
298
104
334
99
12
188
146
219
313
60
163
230
40
178
168
97
142
228
169
124
333
115
51
268
160
330
148
198
71
311
113
73
342
157
63
184
98
105
17
210
77
218
173
48
133
320
220
145
314
232
326
55
344
108
341
3
136
76
141
235
171
39
318
128
167
94
5
162
69
239
319
289
339
174
207
332
27
49
244
21
90
324
340
4
91
293
327
213
150
53
43
192
328
300
80
250
229
153
156
297
271
20
208
61
265
143
35
191
65
95
272
247
101
185
323
107
134
42
199
50
111
312
10
37
287
186
234
206
85
74
135
151
267
64
227
93
72
109
195
165
38
288
269
6
295
54
62
120
316
8
125
290
170
216
166
46
284
175
41
152
130
204
286
285
315
138
281
301
255
2
30
45
11
149
277
22
215
282
100
223
117
15
102
258
23
240
241
225
273
28
131
24
34
305
144
259
322
190
212
118
84
237
106
103
159
280
291
59
209
336
139
176
70
114
87
257
89
252
83
189
158
9
127
306
262
67
29
116
214
283
122
243
251
56
121
33
154
137
193
310
279
31
47
75
18
161
292
172
203
335
147
26
25
270
325
66
343
183
299
179
201
211
78
254
226
256
7
112
32
200
260
52
96
294
126
321
36
236
13
196
263
68
337
276
58
19
261
86
92
331
155
303
249
308
14
329
278
79
205
296
110
245
81
309
119
123
231
238
266
221
16
44
82
242
274
181
233
140
248
217
275
307
132
264
57
197
224
222
202
177
194
182
302
246
129
180
187
253

> <PUBCHEM_MMFF94_PARTIAL_CHARGES>
10
1 -0.43
10 0.42
11 -0.29
12 -0.29
13 0.66
14 0.06
2 -0.57
28 0.15
29 0.15
6 0.14

> <PUBCHEM_EFFECTIVE_ROTOR_COUNT>
4.8

> <PUBCHEM_PHARMACOPHORE_FEATURES>
4
1 16 hydrophobe
1 2 acceptor
5 4 6 10 11 12 rings
7 3 4 5 6 7 8 9 rings

> <PUBCHEM_HEAVY_ATOM_COUNT>
16

> <PUBCHEM_ATOM_DEF_STEREO_COUNT>
0

> <PUBCHEM_ATOM_UDEF_STEREO_COUNT>
5

> <PUBCHEM_BOND_DEF_STEREO_COUNT>
0

> <PUBCHEM_BOND_UDEF_STEREO_COUNT>
0

> <PUBCHEM_ISOTOPIC_ATOM_COUNT>
0

> <PUBCHEM_COMPONENT_COUNT>
1

> <PUBCHEM_CACTVS_TAUTO_COUNT>
1

> <PUBCHEM_CONFORMER_ID>
02A1BAF400000001

> <PUBCHEM_MMFF94_ENERGY>
39.3408

> <PUBCHEM_FEATURE_SELFOVERLAP>
20.381

> <PUBCHEM_SHAPE_FINGERPRINT>
10354089 29 18411987953337467625
10465860 228 18341897355093696139
10980938 120 18408882932025809447
11471102 20 18411698764140440319
12251169 10 17894628175397979135
12346645 6 18411982433787644391
12633257 1 17240759631314427585
13955234 65 18342178821539118427
14252887 29 17894920594404917419
15061688 2 17273121617722397048
15219456 202 18187639151098471783
15342168 16 18265336281877834477
15775835 57 18341047518562689524
16945 1 18337656582259532910
17834072 33 18343578556529803031
1813 80 17342111307762365142
18186145 218 18272366494632136372
19050596 39 18409164420372907027
20157964 124 18340200783900384661
20559304 39 18339922606524698786
20645477 70 18339078173453590319
21041028 32 18124872352647149824
21503847 285 18131641075040152848
21524375 3 18265887132960967790
22854114 111 18410852170199050313
22854114 59 18409166619406601577
23402539 116 17703501190450070132
23402655 69 17988924504493708949
23559900 14 17386012723820635787
25 1 18412824715950893862
276578 36 18410291436802331018
2838139 119 15838992343500501496
293599 30 18337675329871167644
3060560 45 18130511855366242550
32948 21 12679192566075639939
3545911 37 18409172104148306467
4047638 21 18131353024710871200
449060 62 18334862722780694621
474 4 18341613767130524873
49207404 50 18188219800612301931
4990 188 17703799127682940407
5104073 3 18335977666131215267
5374978 207 16660366978580984509
633830 44 18201438120515955013
7364860 26 18341612564655810790
7832392 63 18270395113438863790
81228 2 17543624687768507794
8272917 22 18200318719327459303
9999458 23 18187650219350681846

> <PUBCHEM_SHAPE_MULTIPOLES>
317.53
8.86
1.9
0.98
15.69
0.45
-0.11
-3.52
1.92
-1.66
0.11
-0.23
-0.13
0.09

> <PUBCHEM_SHAPE_SELFOVERLAP>
676.907

> <PUBCHEM_SHAPE_VOLUME>
183.9

> <PUBCHEM_COORDINATE_TYPE>
2
5
10

$$$$
