44152604
  -OEChem-11232108593D

 28 28  0     0  0  0  0  0  0999 V2000
    0.5856   -0.5105    0.2646 O   0  0  0  0  0  0  0  0  0  0  0  0
    2.6172   -1.6109    0.1580 O   0  0  0  0  0  0  0  0  0  0  0  0
    2.5772    0.7168    0.5868 C   0  0  0  0  0  0  0  0  0  0  0  0
    3.6174    1.2397   -0.3598 C   0  0  0  0  0  0  0  0  0  0  0  0
    2.2605    1.8784   -0.3088 C   0  0  0  0  0  0  0  0  0  0  0  0
    1.9470   -0.6000    0.3128 C   0  0  0  0  0  0  0  0  0  0  0  0
   -0.1045   -1.7266    0.0071 C   0  0  0  0  0  0  0  0  0  0  0  0
   -1.6063   -1.4681   -0.0166 C   0  0  0  0  0  0  0  0  0  0  0  0
   -1.9876   -0.5064   -1.1067 C   0  0  0  0  0  0  0  0  0  0  0  0
   -2.5894    0.6717   -0.8859 C   0  0  0  0  0  0  0  0  0  0  0  0
   -2.9577    1.1775    0.4774 C   0  0  0  0  0  0  0  0  0  0  0  0
   -4.3594    0.7382    0.8712 C   0  0  0  0  0  0  0  0  0  0  0  0
    2.7334    0.9308    1.6392 H   0  0  0  0  0  0  0  0  0  0  0  0
    3.8648    0.6566   -1.2384 H   0  0  0  0  0  0  0  0  0  0  0  0
    4.4501    1.7911    0.0597 H   0  0  0  0  0  0  0  0  0  0  0  0
    2.1806    2.8582    0.1461 H   0  0  0  0  0  0  0  0  0  0  0  0
    1.6032    1.7249   -1.1560 H   0  0  0  0  0  0  0  0  0  0  0  0
    0.1255   -2.4511    0.7972 H   0  0  0  0  0  0  0  0  0  0  0  0
    0.2252   -2.1390   -0.9546 H   0  0  0  0  0  0  0  0  0  0  0  0
   -2.1244   -2.4161   -0.2056 H   0  0  0  0  0  0  0  0  0  0  0  0
   -1.9248   -1.1405    0.9757 H   0  0  0  0  0  0  0  0  0  0  0  0
   -1.7706   -0.7984   -2.1309 H   0  0  0  0  0  0  0  0  0  0  0  0
   -2.8468    1.2959   -1.7375 H   0  0  0  0  0  0  0  0  0  0  0  0
   -2.2314    0.8918    1.2443 H   0  0  0  0  0  0  0  0  0  0  0  0
   -2.9248    2.2739    0.4488 H   0  0  0  0  0  0  0  0  0  0  0  0
   -5.1019    1.0780    0.1411 H   0  0  0  0  0  0  0  0  0  0  0  0
   -4.6270    1.1618    1.8446 H   0  0  0  0  0  0  0  0  0  0  0  0
   -4.4307   -0.3518    0.9477 H   0  0  0  0  0  0  0  0  0  0  0  0
  1  6  1  0  0  0  0
  1  7  1  0  0  0  0
  2  6  2  0  0  0  0
  3  4  1  0  0  0  0
  3  5  1  0  0  0  0
  3  6  1  0  0  0  0
  3 13  1  0  0  0  0
  4  5  1  0  0  0  0
  4 14  1  0  0  0  0
  4 15  1  0  0  0  0
  5 16  1  0  0  0  0
  5 17  1  0  0  0  0
  7  8  1  0  0  0  0
  7 18  1  0  0  0  0
  7 19  1  0  0  0  0
  8  9  1  0  0  0  0
  8 20  1  0  0  0  0
  8 21  1  0  0  0  0
  9 10  2  0  0  0  0
  9 22  1  0  0  0  0
 10 11  1  0  0  0  0
 10 23  1  0  0  0  0
 11 12  1  0  0  0  0
 11 24  1  0  0  0  0
 11 25  1  0  0  0  0
 12 26  1  0  0  0  0
 12 27  1  0  0  0  0
 12 28  1  0  0  0  0
M  END
> <PUBCHEM_COMPOUND_CID>
44152604

> <PUBCHEM_CONFORMER_RMSD>
0.8

> <PUBCHEM_CONFORMER_DIVERSEORDER>
1
52
88
64
79
21
89
22
19
30
67
98
35
93
8
39
58
72
12
73
76
94
10
40
60
2
83
57
56
87
38
81
17
96
3
43
48
95
66
69
42
82
23
7
91
65
28
71
32
46
34
20
47
31
41
13
33
29
26
44
61
85
53
37
59
15
80
6
25
86
50
14
24
97
5
54
11
16
51
74
49
62
77
75
84
27
36
63
70
18
92
55
9
78
4
68
45
90

> <PUBCHEM_MMFF94_PARTIAL_CHARGES>
18
1 -0.43
10 -0.29
11 0.14
13 0.1
14 0.1
15 0.1
16 0.1
17 0.1
2 -0.57
22 0.15
23 0.15
3 -0.1
4 -0.2
5 -0.2
6 0.72
7 0.28
8 0.14
9 -0.29

> <PUBCHEM_EFFECTIVE_ROTOR_COUNT>
6.6

> <PUBCHEM_PHARMACOPHORE_FEATURES>
2
1 12 hydrophobe
1 2 acceptor

> <PUBCHEM_HEAVY_ATOM_COUNT>
12

> <PUBCHEM_ATOM_DEF_STEREO_COUNT>
0

> <PUBCHEM_ATOM_UDEF_STEREO_COUNT>
0

> <PUBCHEM_BOND_DEF_STEREO_COUNT>
1

> <PUBCHEM_BOND_UDEF_STEREO_COUNT>
0

> <PUBCHEM_ISOTOPIC_ATOM_COUNT>
0

> <PUBCHEM_COMPONENT_COUNT>
1

> <PUBCHEM_CACTVS_TAUTO_COUNT>
1

> <PUBCHEM_CONFORMER_ID>
02A1B71C00000001

> <PUBCHEM_MMFF94_ENERGY>
12.8801

> <PUBCHEM_FEATURE_SELFOVERLAP>
10.148

> <PUBCHEM_SHAPE_FINGERPRINT>
10149128 111 18342458144799984225
10681291 71 18338249239895339100
10857977 72 16153714180822848431
12162725 195 18339630222241638838
122479 349 18410859845870104435
12932764 1 17458616787774452866
13380535 21 18335144223537972790
13549 16 10735878331833278603
13618510 140 18409444795347437996
13764800 53 18337399334892580987
13897977 13 18409172099990768537
14123260 362 18131078151130705705
15342168 16 18261118512445241229
15775835 57 18341897402412429649
1741750 31 18271522108483310586
18186145 218 18412542080911117759
18219364 16 18041547075365012237
19107657 9 18412545431033211141
20304884 271 18341331209637231233
20539926 19 18341901787431731049
20653085 51 18342460322359186643
20671657 1 18411978044652853670
20711983 171 18059855082007033527
21501502 16 18411129272952288446
21524375 3 18411692201546846327
22959321 45 18113903792104942325
23557571 272 15912181270030007907
3248919 1 18339061774756562718
81228 2 17242181372911591651
9882013 296 17022910094100088797

> <PUBCHEM_SHAPE_MULTIPOLES>
235.22
7.14
1.97
0.93
1.93
0.26
-0.1
-3.57
0.87
-0.65
0
0.56
-0.11
-0.62

> <PUBCHEM_SHAPE_SELFOVERLAP>
450.139

> <PUBCHEM_SHAPE_VOLUME>
144.8

> <PUBCHEM_COORDINATE_TYPE>
2
5
10

$$$$
