44152459
  -OEChem-11232108543D

 43 45  0     1  0  0  0  0  0999 V2000
   -2.2999    0.8116    0.6457 O   0  0  0  0  0  0  0  0  0  0  0  0
   -1.8251   -1.2239   -0.5545 O   0  0  0  0  0  0  0  0  0  0  0  0
    1.0137   -0.7386    0.6239 C   0  0  2  0  0  0  0  0  0  0  0  0
    2.4174   -0.3231    0.9944 C   0  0  1  0  0  0  0  0  0  0  0  0
    2.1889   -1.2679   -0.1575 C   0  0  0  0  0  0  0  0  0  0  0  0
    0.0185    0.2662    0.0357 C   0  0  0  0  0  0  0  0  0  0  0  0
    2.9382    1.0432    0.6894 C   0  0  0  0  0  0  0  0  0  0  0  0
    0.7653    1.5232   -0.5406 C   0  0  2  0  0  0  0  0  0  0  0  0
    1.8263    2.0545    0.4444 C   0  0  0  0  0  0  0  0  0  0  0  0
    2.6516   -2.6819   -0.0872 C   0  0  0  0  0  0  0  0  0  0  0  0
    2.3746   -0.6998   -1.5287 C   0  0  0  0  0  0  0  0  0  0  0  0
   -0.9818    0.6510    1.1676 C   0  0  0  0  0  0  0  0  0  0  0  0
   -0.7617   -0.4464   -1.1045 C   0  0  0  0  0  0  0  0  0  0  0  0
   -0.1649    2.6814   -0.9350 C   0  0  0  0  0  0  0  0  0  0  0  0
   -2.8150   -0.4020    0.0800 C   0  0  0  0  0  0  0  0  0  0  0  0
   -3.4717   -1.2414    1.1775 C   0  0  0  0  0  0  0  0  0  0  0  0
   -3.8746   -0.0061   -0.9505 C   0  0  0  0  0  0  0  0  0  0  0  0
    0.5243   -1.4707    1.2606 H   0  0  0  0  0  0  0  0  0  0  0  0
    2.8368   -0.7295    1.9074 H   0  0  0  0  0  0  0  0  0  0  0  0
    3.7033    1.0600   -0.0912 H   0  0  0  0  0  0  0  0  0  0  0  0
    3.4847    1.3881    1.5784 H   0  0  0  0  0  0  0  0  0  0  0  0
    1.2371    1.2992   -1.4930 H   0  0  0  0  0  0  0  0  0  0  0  0
    1.3588    2.3208    1.3995 H   0  0  0  0  0  0  0  0  0  0  0  0
    2.2754    2.9780    0.0583 H   0  0  0  0  0  0  0  0  0  0  0  0
    2.1218   -3.3029   -0.8175 H   0  0  0  0  0  0  0  0  0  0  0  0
    2.4671   -3.1114    0.9036 H   0  0  0  0  0  0  0  0  0  0  0  0
    3.7271   -2.7553   -0.2814 H   0  0  0  0  0  0  0  0  0  0  0  0
    3.1059   -1.3378   -2.0508 H   0  0  0  0  0  0  0  0  0  0  0  0
    2.8605    0.2682   -1.6283 H   0  0  0  0  0  0  0  0  0  0  0  0
    1.5251   -0.7446   -2.2030 H   0  0  0  0  0  0  0  0  0  0  0  0
   -1.0142   -0.0969    1.9683 H   0  0  0  0  0  0  0  0  0  0  0  0
   -0.7046    1.5867    1.6609 H   0  0  0  0  0  0  0  0  0  0  0  0
   -1.1732    0.2466   -1.8430 H   0  0  0  0  0  0  0  0  0  0  0  0
   -0.1822   -1.1813   -1.6540 H   0  0  0  0  0  0  0  0  0  0  0  0
   -0.6642    3.1201   -0.0656 H   0  0  0  0  0  0  0  0  0  0  0  0
   -0.9343    2.3700   -1.6461 H   0  0  0  0  0  0  0  0  0  0  0  0
    0.4086    3.4833   -1.4146 H   0  0  0  0  0  0  0  0  0  0  0  0
   -2.7281   -1.5948    1.9001 H   0  0  0  0  0  0  0  0  0  0  0  0
   -3.9510   -2.1340    0.7607 H   0  0  0  0  0  0  0  0  0  0  0  0
   -4.2145   -0.6600    1.7336 H   0  0  0  0  0  0  0  0  0  0  0  0
   -3.4446    0.6355   -1.7275 H   0  0  0  0  0  0  0  0  0  0  0  0
   -4.6867    0.5636   -0.4859 H   0  0  0  0  0  0  0  0  0  0  0  0
   -4.2921   -0.8858   -1.4515 H   0  0  0  0  0  0  0  0  0  0  0  0
  1 12  1  0  0  0  0
  1 15  1  0  0  0  0
  2 13  1  0  0  0  0
  2 15  1  0  0  0  0
  3  4  1  0  0  0  0
  3  5  1  0  0  0  0
  3  6  1  0  0  0  0
  3 18  1  0  0  0  0
  4  5  1  0  0  0  0
  4  7  1  0  0  0  0
  4 19  1  0  0  0  0
  5 10  1  0  0  0  0
  5 11  1  0  0  0  0
  6  8  1  0  0  0  0
  6 12  1  0  0  0  0
  6 13  1  0  0  0  0
  7  9  1  0  0  0  0
  7 20  1  0  0  0  0
  7 21  1  0  0  0  0
  8  9  1  0  0  0  0
  8 14  1  0  0  0  0
  8 22  1  0  0  0  0
  9 23  1  0  0  0  0
  9 24  1  0  0  0  0
 10 25  1  0  0  0  0
 10 26  1  0  0  0  0
 10 27  1  0  0  0  0
 11 28  1  0  0  0  0
 11 29  1  0  0  0  0
 11 30  1  0  0  0  0
 12 31  1  0  0  0  0
 12 32  1  0  0  0  0
 13 33  1  0  0  0  0
 13 34  1  0  0  0  0
 14 35  1  0  0  0  0
 14 36  1  0  0  0  0
 14 37  1  0  0  0  0
 15 16  1  0  0  0  0
 15 17  1  0  0  0  0
 16 38  1  0  0  0  0
 16 39  1  0  0  0  0
 16 40  1  0  0  0  0
 17 41  1  0  0  0  0
 17 42  1  0  0  0  0
 17 43  1  0  0  0  0
M  END
> <PUBCHEM_COMPOUND_CID>
44152459

> <PUBCHEM_CONFORMER_RMSD>
0.6

> <PUBCHEM_CONFORMER_DIVERSEORDER>
2
1

> <PUBCHEM_MMFF94_PARTIAL_CHARGES>
14
1 -0.56
10 0.09
11 0.09
12 0.28
13 0.28
15 0.56
18 0.1
19 0.1
2 -0.56
3 -0.19
4 -0.19
5 -0.19
6 0.09
7 0.09

> <PUBCHEM_EFFECTIVE_ROTOR_COUNT>
1.8

> <PUBCHEM_PHARMACOPHORE_FEATURES>
6
1 1 acceptor
1 2 acceptor
3 15 16 17 hydrophobe
3 5 10 11 hydrophobe
6 1 2 6 12 13 15 rings
7 3 4 5 6 7 8 9 rings

> <PUBCHEM_HEAVY_ATOM_COUNT>
17

> <PUBCHEM_ATOM_DEF_STEREO_COUNT>
3

> <PUBCHEM_ATOM_UDEF_STEREO_COUNT>
0

> <PUBCHEM_BOND_DEF_STEREO_COUNT>
0

> <PUBCHEM_BOND_UDEF_STEREO_COUNT>
0

> <PUBCHEM_ISOTOPIC_ATOM_COUNT>
0

> <PUBCHEM_COMPONENT_COUNT>
1

> <PUBCHEM_CACTVS_TAUTO_COUNT>
1

> <PUBCHEM_CONFORMER_ID>
02A1B68B00000002

> <PUBCHEM_MMFF94_ENERGY>
80.786

> <PUBCHEM_FEATURE_SELFOVERLAP>
30.477

> <PUBCHEM_SHAPE_FINGERPRINT>
10922523 26 18261664948323008933
10980938 120 18337951306577336004
11132069 177 18199452428660664944
11578080 2 17486171653258205129
116883 192 18264477391387079829
11769659 78 18059288760457052147
12326174 3 18114735036170631608
12423570 1 11609224708063345220
12553582 1 18121506756250613442
13296908 3 18334859420093385707
13571099 22 18341887481306780463
14181834 199 18271799168096562621
14817 1 13756349056236916660
15881359 60 17700100276035519532
161256 15 18410572855986801372
16945 1 18201716305510864728
18186145 218 18260267447669339995
20361792 2 18336830801223315791
20559304 39 18271250520447527257
20645477 70 18342731914821890863
20871998 22 18409448046821992024
21501502 16 18268994185285709232
21524375 3 17178289976086688748
21731516 1 18265627476370537674
22445834 79 18272654558041167347
23419403 2 14360332641524599200
23557571 272 18040985207569393004
2748010 2 18125141754950852372
296302 2 17894905273713415825
3286 77 17168978062113589931
6049 1 18041003968508436825
7364860 26 18060422451682398696
74978 22 18411983568049355175
81228 2 18044089060122672457

> <PUBCHEM_SHAPE_MULTIPOLES>
338.11
5.45
2.35
1.27
3.83
0.47
0.11
-2.02
-0.32
-1.49
0.28
0.09
-0.01
0.54

> <PUBCHEM_SHAPE_SELFOVERLAP>
705.957

> <PUBCHEM_SHAPE_VOLUME>
191.5

> <PUBCHEM_COORDINATE_TYPE>
2
5
10

$$$$
