441572
  -OEChem-11232109193D

 28 28  0     1  0  0  0  0  0999 V2000
    0.3183   -0.3930   -0.2781 O   0  0  0  0  0  0  0  0  0  0  0  0
   -1.8650   -2.1120    0.0254 O   0  0  0  0  0  0  0  0  0  0  0  0
   -0.6699    0.4025    0.3974 C   0  0  1  0  0  0  0  0  0  0  0  0
    1.5838    0.3002   -0.2389 C   0  0  2  0  0  0  0  0  0  0  0  0
   -0.1177    1.8149    0.4352 C   0  0  0  0  0  0  0  0  0  0  0  0
    1.3606    1.5548    0.6085 C   0  0  0  0  0  0  0  0  0  0  0  0
   -1.9983    0.2918   -0.3250 C   0  0  2  0  0  0  0  0  0  0  0  0
    1.9620    0.6394   -1.6820 C   0  0  0  0  0  0  0  0  0  0  0  0
    2.6098   -0.6035    0.3709 C   0  0  0  0  0  0  0  0  0  0  0  0
   -3.0791    1.1171    0.3693 C   0  0  0  0  0  0  0  0  0  0  0  0
   -2.4732   -1.1477   -0.4279 C   0  0  0  0  0  0  0  0  0  0  0  0
    2.3688   -1.8645    0.7452 C   0  0  0  0  0  0  0  0  0  0  0  0
   -0.7495    0.0036    1.4175 H   0  0  0  0  0  0  0  0  0  0  0  0
   -0.5385    2.4190    1.2440 H   0  0  0  0  0  0  0  0  0  0  0  0
   -0.2929    2.3385   -0.5120 H   0  0  0  0  0  0  0  0  0  0  0  0
    1.9802    2.4045    0.3046 H   0  0  0  0  0  0  0  0  0  0  0  0
    1.5662    1.3606    1.6695 H   0  0  0  0  0  0  0  0  0  0  0  0
   -1.8864    0.6328   -1.3624 H   0  0  0  0  0  0  0  0  0  0  0  0
    2.9088    1.1876   -1.7351 H   0  0  0  0  0  0  0  0  0  0  0  0
    2.0566   -0.2706   -2.2868 H   0  0  0  0  0  0  0  0  0  0  0  0
    1.1856    1.2448   -2.1634 H   0  0  0  0  0  0  0  0  0  0  0  0
    3.6117   -0.2046    0.5110 H   0  0  0  0  0  0  0  0  0  0  0  0
   -4.0496    0.9796   -0.1204 H   0  0  0  0  0  0  0  0  0  0  0  0
   -2.8473    2.1864    0.3435 H   0  0  0  0  0  0  0  0  0  0  0  0
   -3.1974    0.8146    1.4159 H   0  0  0  0  0  0  0  0  0  0  0  0
   -3.4216   -1.2938   -0.9743 H   0  0  0  0  0  0  0  0  0  0  0  0
    3.1670   -2.4584    1.1789 H   0  0  0  0  0  0  0  0  0  0  0  0
    1.4031   -2.3439    0.6391 H   0  0  0  0  0  0  0  0  0  0  0  0
  1  3  1  0  0  0  0
  1  4  1  0  0  0  0
  2 11  2  0  0  0  0
  3  5  1  0  0  0  0
  3  7  1  0  0  0  0
  3 13  1  0  0  0  0
  4  6  1  0  0  0  0
  4  8  1  0  0  0  0
  4  9  1  0  0  0  0
  5  6  1  0  0  0  0
  5 14  1  0  0  0  0
  5 15  1  0  0  0  0
  6 16  1  0  0  0  0
  6 17  1  0  0  0  0
  7 10  1  0  0  0  0
  7 11  1  0  0  0  0
  7 18  1  0  0  0  0
  8 19  1  0  0  0  0
  8 20  1  0  0  0  0
  8 21  1  0  0  0  0
  9 12  2  0  0  0  0
  9 22  1  0  0  0  0
 10 23  1  0  0  0  0
 10 24  1  0  0  0  0
 10 25  1  0  0  0  0
 11 26  1  0  0  0  0
 12 27  1  0  0  0  0
 12 28  1  0  0  0  0
M  END
> <PUBCHEM_COMPOUND_CID>
441572

> <PUBCHEM_CONFORMER_RMSD>
0.6

> <PUBCHEM_CONFORMER_DIVERSEORDER>
1
6
11
2
10
5
9
7
4
12
8
3

> <PUBCHEM_MMFF94_PARTIAL_CHARGES>
12
1 -0.56
11 0.45
12 -0.3
2 -0.57
22 0.15
26 0.06
27 0.15
28 0.15
3 0.28
4 0.42
7 0.06
9 -0.29

> <PUBCHEM_EFFECTIVE_ROTOR_COUNT>
4

> <PUBCHEM_PHARMACOPHORE_FEATURES>
5
1 1 acceptor
1 10 hydrophobe
1 12 hydrophobe
1 2 acceptor
5 1 3 4 5 6 rings

> <PUBCHEM_HEAVY_ATOM_COUNT>
12

> <PUBCHEM_ATOM_DEF_STEREO_COUNT>
3

> <PUBCHEM_ATOM_UDEF_STEREO_COUNT>
0

> <PUBCHEM_BOND_DEF_STEREO_COUNT>
0

> <PUBCHEM_BOND_UDEF_STEREO_COUNT>
0

> <PUBCHEM_ISOTOPIC_ATOM_COUNT>
0

> <PUBCHEM_COMPONENT_COUNT>
1

> <PUBCHEM_CACTVS_TAUTO_COUNT>
2

> <PUBCHEM_CONFORMER_ID>
0006BCE400000001

> <PUBCHEM_MMFF94_ENERGY>
23.842

> <PUBCHEM_FEATURE_SELFOVERLAP>
25.375

> <PUBCHEM_SHAPE_FINGERPRINT>
10130415 120 18340204085770158961
12382932 28 18270955752462737010
12423570 1 8534882611986380356
12932764 1 18410865390382888913
14115302 16 18335426733406434821
14128692 85 18334012766117353582
15310529 11 17749405753496305309
15775835 57 18408329886314458421
16945 1 18339638932466957024
17990270 104 17917155003929583197
18511873 20 18189050889441989763
18619055 16 18335137561938123821
20082192 1 17059502987712619799
20645476 183 18188229631697438455
20645477 70 17841709922574319007
20653091 64 18270680990667531560
20711985 344 17700999663768055192
21501502 16 18341327898507563809
23211744 25 17904505221621157220
232386 152 18341611490876784262
23552423 10 18264489662150510917
23559900 14 18271806771148752446
2748010 2 18200591531006961213
3248919 1 17458904945899344849
5084963 1 17895183441728761055
74978 22 18413670223075803257
8030462 33 18336547239055925711
81228 2 17272868510308695152

> <PUBCHEM_SHAPE_MULTIPOLES>
235.22
4.39
2.01
1.02
1.34
0.52
-0.35
1.03
0.08
0.11
0.37
-0.57
-0.16
-0.64

> <PUBCHEM_SHAPE_SELFOVERLAP>
468.396

> <PUBCHEM_SHAPE_VOLUME>
141.1

> <PUBCHEM_COORDINATE_TYPE>
2
5
10

$$$$
