44182035
  -OEChem-11232109013D

 47 47  0     0  0  0  0  0  0999 V2000
   -1.2421    1.5504    1.9394 S   0  0  0  0  0  0  0  0  0  0  0  0
   -3.2625   -0.7367    0.2313 O   0  0  0  0  0  0  0  0  0  0  0  0
   -3.0379   -1.8552   -1.7766 O   0  0  0  0  0  0  0  0  0  0  0  0
    0.2084    2.4195   -0.0160 N   0  0  0  0  0  0  0  0  0  0  0  0
    2.3805   -1.2188   -0.2917 C   0  0  0  0  0  0  0  0  0  0  0  0
    1.2999   -1.6365    0.7085 C   0  0  0  0  0  0  0  0  0  0  0  0
    3.6530   -0.7638    0.4262 C   0  0  0  0  0  0  0  0  0  0  0  0
    0.0154   -2.0614   -0.0051 C   0  0  0  0  0  0  0  0  0  0  0  0
    4.7593   -0.3046   -0.5277 C   0  0  0  0  0  0  0  0  0  0  0  0
   -1.0751   -2.4464    0.9946 C   0  0  0  0  0  0  0  0  0  0  0  0
    6.0220    0.1736    0.1903 C   0  0  0  0  0  0  0  0  0  0  0  0
   -2.3438   -2.9015    0.2836 C   0  0  0  0  0  0  0  0  0  0  0  0
    7.1137    0.5493   -0.8002 C   0  0  0  0  0  0  0  0  0  0  0  0
   -2.9092   -1.7888   -0.5610 C   0  0  0  0  0  0  0  0  0  0  0  0
   -3.8361    0.3829   -0.4509 C   0  0  0  0  0  0  0  0  0  0  0  0
   -3.5080    1.6680    0.3012 C   0  0  0  0  0  0  0  0  0  0  0  0
   -2.0213    1.8834    0.4483 C   0  0  0  0  0  0  0  0  0  0  0  0
   -1.0939    2.3331   -0.4679 C   0  0  0  0  0  0  0  0  0  0  0  0
   -1.3711    2.7213   -1.8661 C   0  0  0  0  0  0  0  0  0  0  0  0
    0.2489    2.0323    1.2396 C   0  0  0  0  0  0  0  0  0  0  0  0
    2.6140   -2.0581   -0.9576 H   0  0  0  0  0  0  0  0  0  0  0  0
    2.0047   -0.4015   -0.9191 H   0  0  0  0  0  0  0  0  0  0  0  0
    1.6705   -2.4687    1.3194 H   0  0  0  0  0  0  0  0  0  0  0  0
    1.0887   -0.8087    1.3934 H   0  0  0  0  0  0  0  0  0  0  0  0
    4.0322   -1.5853    1.0466 H   0  0  0  0  0  0  0  0  0  0  0  0
    3.4074    0.0602    1.1079 H   0  0  0  0  0  0  0  0  0  0  0  0
   -0.3245   -1.2341   -0.6391 H   0  0  0  0  0  0  0  0  0  0  0  0
    0.2278   -2.9101   -0.6667 H   0  0  0  0  0  0  0  0  0  0  0  0
    4.3757    0.5058   -1.1601 H   0  0  0  0  0  0  0  0  0  0  0  0
    5.0154   -1.1344   -1.1983 H   0  0  0  0  0  0  0  0  0  0  0  0
   -1.2877   -1.6048    1.6620 H   0  0  0  0  0  0  0  0  0  0  0  0
   -0.7154   -3.2667    1.6276 H   0  0  0  0  0  0  0  0  0  0  0  0
    5.7859    1.0400    0.8187 H   0  0  0  0  0  0  0  0  0  0  0  0
    6.3941   -0.6167    0.8525 H   0  0  0  0  0  0  0  0  0  0  0  0
   -3.1068   -3.2159    1.0037 H   0  0  0  0  0  0  0  0  0  0  0  0
   -2.1354   -3.7608   -0.3638 H   0  0  0  0  0  0  0  0  0  0  0  0
    7.3947   -0.3089   -1.4191 H   0  0  0  0  0  0  0  0  0  0  0  0
    8.0068    0.8907   -0.2677 H   0  0  0  0  0  0  0  0  0  0  0  0
    6.7825    1.3566   -1.4611 H   0  0  0  0  0  0  0  0  0  0  0  0
   -3.4656    0.4586   -1.4799 H   0  0  0  0  0  0  0  0  0  0  0  0
   -4.9219    0.2427   -0.4845 H   0  0  0  0  0  0  0  0  0  0  0  0
   -3.9508    2.5241   -0.2213 H   0  0  0  0  0  0  0  0  0  0  0  0
   -3.9730    1.6303    1.2946 H   0  0  0  0  0  0  0  0  0  0  0  0
   -2.2410    3.3826   -1.9268 H   0  0  0  0  0  0  0  0  0  0  0  0
   -0.5191    3.2527   -2.3025 H   0  0  0  0  0  0  0  0  0  0  0  0
   -1.5640    1.8348   -2.4781 H   0  0  0  0  0  0  0  0  0  0  0  0
    1.1698    2.0140    1.8062 H   0  0  0  0  0  0  0  0  0  0  0  0
  1 17  1  0  0  0  0
  1 20  1  0  0  0  0
  2 14  1  0  0  0  0
  2 15  1  0  0  0  0
  3 14  2  0  0  0  0
  4 18  1  0  0  0  0
  4 20  2  0  0  0  0
  5  6  1  0  0  0  0
  5  7  1  0  0  0  0
  5 21  1  0  0  0  0
  5 22  1  0  0  0  0
  6  8  1  0  0  0  0
  6 23  1  0  0  0  0
  6 24  1  0  0  0  0
  7  9  1  0  0  0  0
  7 25  1  0  0  0  0
  7 26  1  0  0  0  0
  8 10  1  0  0  0  0
  8 27  1  0  0  0  0
  8 28  1  0  0  0  0
  9 11  1  0  0  0  0
  9 29  1  0  0  0  0
  9 30  1  0  0  0  0
 10 12  1  0  0  0  0
 10 31  1  0  0  0  0
 10 32  1  0  0  0  0
 11 13  1  0  0  0  0
 11 33  1  0  0  0  0
 11 34  1  0  0  0  0
 12 14  1  0  0  0  0
 12 35  1  0  0  0  0
 12 36  1  0  0  0  0
 13 37  1  0  0  0  0
 13 38  1  0  0  0  0
 13 39  1  0  0  0  0
 15 16  1  0  0  0  0
 15 40  1  0  0  0  0
 15 41  1  0  0  0  0
 16 17  1  0  0  0  0
 16 42  1  0  0  0  0
 16 43  1  0  0  0  0
 17 18  2  0  0  0  0
 18 19  1  0  0  0  0
 19 44  1  0  0  0  0
 19 45  1  0  0  0  0
 19 46  1  0  0  0  0
 20 47  1  0  0  0  0
M  END
> <PUBCHEM_COMPOUND_CID>
44182035

> <PUBCHEM_CONFORMER_RMSD>
1.4

> <PUBCHEM_CONFORMER_DIVERSEORDER>
2
5
41
16
9
71
28
26
20
38
31
55
52
40
19
89
91
72
100
80
32
8
98
44
76
83
12
79
30
37
99
48
54
59
87
96
25
1
33
24
67
13
81
35
77
21
49
50
15
70
22
14
84
90
45
53
18
27
95
78
7
75
62
23
69
11
56
39
6
47
29
4
10
64
66
93
68
74
97
65
61
63
73
17
46
3
58
60
51
88
57
92
42
36
43
85
34
86
82
94

> <PUBCHEM_MMFF94_PARTIAL_CHARGES>
13
1 -0.08
12 0.06
14 0.66
15 0.28
16 0.18
17 -0.14
18 0.05
19 0.18
2 -0.43
20 0.23
3 -0.57
4 -0.57
47 0.15

> <PUBCHEM_EFFECTIVE_ROTOR_COUNT>
12

> <PUBCHEM_PHARMACOPHORE_FEATURES>
4
1 13 hydrophobe
1 3 acceptor
1 4 acceptor
5 1 4 17 18 20 rings

> <PUBCHEM_HEAVY_ATOM_COUNT>
20

> <PUBCHEM_ATOM_DEF_STEREO_COUNT>
0

> <PUBCHEM_ATOM_UDEF_STEREO_COUNT>
0

> <PUBCHEM_BOND_DEF_STEREO_COUNT>
0

> <PUBCHEM_BOND_UDEF_STEREO_COUNT>
0

> <PUBCHEM_ISOTOPIC_ATOM_COUNT>
0

> <PUBCHEM_COMPONENT_COUNT>
1

> <PUBCHEM_CACTVS_TAUTO_COUNT>
1

> <PUBCHEM_CONFORMER_ID>
02A22A1300000002

> <PUBCHEM_MMFF94_ENERGY>
5.9345

> <PUBCHEM_FEATURE_SELFOVERLAP>
20.297

> <PUBCHEM_SHAPE_FINGERPRINT>
10454371 7 18270133404767183204
10493431 412 18198635328376046729
10730089 173 18411703184421527590
10759866 29 18188203179221001714
10871710 139 18336824195953751287
13994607 96 17532400641101420130
14251764 75 17836371445122720161
14765038 42 18200047130938320089
14931854 50 18339631270487901287
17357779 13 18199738301483445922
17492 54 18336531730282376151
18336668 15 18041284360911101644
20101258 96 18050291667266536651
20765182 40 18341885291379985482
20765182 5 18335143115758118756
20905425 154 17981891053460335055
21141583 151 18128532652657702522
21236236 1 18412830188156051238
21623110 236 18340496667923116088
23402539 116 18341611547038718542
23557571 272 18202290212421944686
23559900 14 18200584921200551528
469060 322 17895205401738374299
5364581 5 10666380530036463190
6034566 193 17981898445047103409
6299153 45 18188203184170239706

> <PUBCHEM_SHAPE_MULTIPOLES>
398.72
10.7
3.73
1.41
26.32
0.26
0.03
-0.55
2.86
-3.68
0.17
-0.8
-0.61
-0.47

> <PUBCHEM_SHAPE_SELFOVERLAP>
761.187

> <PUBCHEM_SHAPE_VOLUME>
246.7

> <PUBCHEM_COORDINATE_TYPE>
2
5
10

$$$$
