447661
  -OEChem-11232109233D

 22 22  0     1  0  0  0  0  0999 V2000
    2.1443   -1.5633    0.9499 O   0  0  0  0  0  0  0  0  0  0  0  0
    1.4908    0.6154    0.1216 C   0  0  1  0  0  0  0  0  0  0  0  0
    0.0381    0.2843    0.0493 C   0  0  0  0  0  0  0  0  0  0  0  0
    2.4018   -0.6170   -0.0815 C   0  0  0  0  0  0  0  0  0  0  0  0
    1.8843    1.7182   -0.8816 C   0  0  0  0  0  0  0  0  0  0  0  0
   -0.8744    0.9712    0.8498 C   0  0  0  0  0  0  0  0  0  0  0  0
   -0.4076   -0.7124   -0.8187 C   0  0  0  0  0  0  0  0  0  0  0  0
   -2.2328    0.6613    0.7826 C   0  0  0  0  0  0  0  0  0  0  0  0
   -1.7660   -1.0223   -0.8861 C   0  0  0  0  0  0  0  0  0  0  0  0
   -2.6785   -0.3354   -0.0854 C   0  0  0  0  0  0  0  0  0  0  0  0
    1.6982    0.9907    1.1339 H   0  0  0  0  0  0  0  0  0  0  0  0
    3.4501   -0.3148    0.0218 H   0  0  0  0  0  0  0  0  0  0  0  0
    2.3093   -1.0977   -1.0596 H   0  0  0  0  0  0  0  0  0  0  0  0
    2.9414    1.9829   -0.7728 H   0  0  0  0  0  0  0  0  0  0  0  0
    1.7182    1.3924   -1.9145 H   0  0  0  0  0  0  0  0  0  0  0  0
    1.2913    2.6248   -0.7182 H   0  0  0  0  0  0  0  0  0  0  0  0
   -0.5416    1.7517    1.5289 H   0  0  0  0  0  0  0  0  0  0  0  0
    0.2609   -1.2532   -1.4795 H   0  0  0  0  0  0  0  0  0  0  0  0
   -2.9436    1.1967    1.4053 H   0  0  0  0  0  0  0  0  0  0  0  0
   -2.1145   -1.7939   -1.5664 H   0  0  0  0  0  0  0  0  0  0  0  0
   -3.7364   -0.5755   -0.1391 H   0  0  0  0  0  0  0  0  0  0  0  0
    1.2994   -2.0013    0.7554 H   0  0  0  0  0  0  0  0  0  0  0  0
  1  4  1  0  0  0  0
  1 22  1  0  0  0  0
  2  3  1  0  0  0  0
  2  4  1  0  0  0  0
  2  5  1  0  0  0  0
  2 11  1  0  0  0  0
  3  6  2  0  0  0  0
  3  7  1  0  0  0  0
  4 12  1  0  0  0  0
  4 13  1  0  0  0  0
  5 14  1  0  0  0  0
  5 15  1  0  0  0  0
  5 16  1  0  0  0  0
  6  8  1  0  0  0  0
  6 17  1  0  0  0  0
  7  9  2  0  0  0  0
  7 18  1  0  0  0  0
  8 10  2  0  0  0  0
  8 19  1  0  0  0  0
  9 10  1  0  0  0  0
  9 20  1  0  0  0  0
 10 21  1  0  0  0  0
M  END
> <PUBCHEM_COMPOUND_CID>
447661

> <PUBCHEM_CONFORMER_RMSD>
0.4

> <PUBCHEM_CONFORMER_DIVERSEORDER>
1
7
3
8
5
6
4
2

> <PUBCHEM_MMFF94_PARTIAL_CHARGES>
15
1 -0.68
10 -0.15
17 0.15
18 0.15
19 0.15
2 0.14
20 0.15
21 0.15
22 0.4
3 -0.14
4 0.28
6 -0.15
7 -0.15
8 -0.15
9 -0.15

> <PUBCHEM_EFFECTIVE_ROTOR_COUNT>
2

> <PUBCHEM_PHARMACOPHORE_FEATURES>
4
1 1 acceptor
1 1 donor
1 5 hydrophobe
6 3 6 7 8 9 10 rings

> <PUBCHEM_HEAVY_ATOM_COUNT>
10

> <PUBCHEM_ATOM_DEF_STEREO_COUNT>
1

> <PUBCHEM_ATOM_UDEF_STEREO_COUNT>
0

> <PUBCHEM_BOND_DEF_STEREO_COUNT>
0

> <PUBCHEM_BOND_UDEF_STEREO_COUNT>
0

> <PUBCHEM_ISOTOPIC_ATOM_COUNT>
0

> <PUBCHEM_COMPONENT_COUNT>
1

> <PUBCHEM_CACTVS_TAUTO_COUNT>
1

> <PUBCHEM_CONFORMER_ID>
0006D4AD00000001

> <PUBCHEM_MMFF94_ENERGY>
25.2976

> <PUBCHEM_FEATURE_SELFOVERLAP>
20.297

> <PUBCHEM_SHAPE_FINGERPRINT>
10857977 72 16702015413614800403
12326174 3 17458612454616512656
12423570 1 13269509474990732068
12932764 1 18410017645290114869
14128692 85 18342737425132653230
15310529 11 18261677068625727021
16945 1 17418380207416965501
18185500 45 18270958054554346084
20645464 45 15792007943201104157
20653091 64 18409445916602726202
21040471 1 17560253413826811641
23552333 60 18340767130281374032
23552423 10 18410572937190058503
29004967 10 17603866714899787424
369184 2 18411416219938393049
5084963 1 18412261722768270209
528862 383 18333732442028360946
8030462 33 18270962465528061165

> <PUBCHEM_SHAPE_MULTIPOLES>
199.93
3.8
1.49
1.04
0.1
0.04
0.01
-0.3
-0.11
-0.55
0.02
-0.13
-0.02
-0.97

> <PUBCHEM_SHAPE_SELFOVERLAP>
405.06

> <PUBCHEM_SHAPE_VOLUME>
117

> <PUBCHEM_COORDINATE_TYPE>
2
5
10

$$$$
