4488713
  -OEChem-11232109153D

 29 28  0     1  0  0  0  0  0999 V2000
    3.8205   -0.5457   -0.8170 O   0  0  0  0  0  0  0  0  0  0  0  0
   -3.5749   -1.3125   -0.7284 O   0  0  0  0  0  0  0  0  0  0  0  0
    3.2415   -0.8203    1.3637 O   0  0  0  0  0  0  0  0  0  0  0  0
    0.4893   -0.1568    0.2462 C   0  0  1  0  0  0  0  0  0  0  0  0
   -0.9127   -0.6352   -0.1945 C   0  0  0  0  0  0  0  0  0  0  0  0
    1.5503   -1.1067   -0.3407 C   0  0  0  0  0  0  0  0  0  0  0  0
   -2.0544    0.1445    0.4620 C   0  0  0  0  0  0  0  0  0  0  0  0
    0.7641    1.3030   -0.1028 C   0  0  0  0  0  0  0  0  0  0  0  0
    0.7666    1.7104   -1.5507 C   0  0  0  0  0  0  0  0  0  0  0  0
   -3.4221   -0.3562    0.0300 C   0  0  0  0  0  0  0  0  0  0  0  0
    2.9392   -0.8175    0.1774 C   0  0  0  0  0  0  0  0  0  0  0  0
    0.9999    2.2089    0.8610 C   0  0  0  0  0  0  0  0  0  0  0  0
   -4.6072    0.3842    0.5939 C   0  0  0  0  0  0  0  0  0  0  0  0
    0.5310   -0.2667    1.3397 H   0  0  0  0  0  0  0  0  0  0  0  0
   -1.0085   -0.5836   -1.2866 H   0  0  0  0  0  0  0  0  0  0  0  0
   -1.0233   -1.6968    0.0651 H   0  0  0  0  0  0  0  0  0  0  0  0
    1.5521   -1.0648   -1.4364 H   0  0  0  0  0  0  0  0  0  0  0  0
    1.3274   -2.1479   -0.0766 H   0  0  0  0  0  0  0  0  0  0  0  0
   -1.9903    0.0543    1.5518 H   0  0  0  0  0  0  0  0  0  0  0  0
   -1.9974    1.2044    0.1932 H   0  0  0  0  0  0  0  0  0  0  0  0
    1.5419    1.1748   -2.1061 H   0  0  0  0  0  0  0  0  0  0  0  0
    0.9626    2.7813   -1.6735 H   0  0  0  0  0  0  0  0  0  0  0  0
   -0.2027    1.5048   -2.0142 H   0  0  0  0  0  0  0  0  0  0  0  0
    1.0018    1.9321    1.9101 H   0  0  0  0  0  0  0  0  0  0  0  0
    1.1967    3.2492    0.6243 H   0  0  0  0  0  0  0  0  0  0  0  0
   -4.5665    1.4312    0.2836 H   0  0  0  0  0  0  0  0  0  0  0  0
   -5.5330   -0.0598    0.2175 H   0  0  0  0  0  0  0  0  0  0  0  0
   -4.5986    0.3126    1.6842 H   0  0  0  0  0  0  0  0  0  0  0  0
    4.7176   -0.3550   -0.4691 H   0  0  0  0  0  0  0  0  0  0  0  0
  1 11  1  0  0  0  0
  1 29  1  0  0  0  0
  2 10  2  0  0  0  0
  3 11  2  0  0  0  0
  4  5  1  0  0  0  0
  4  6  1  0  0  0  0
  4  8  1  0  0  0  0
  4 14  1  0  0  0  0
  5  7  1  0  0  0  0
  5 15  1  0  0  0  0
  5 16  1  0  0  0  0
  6 11  1  0  0  0  0
  6 17  1  0  0  0  0
  6 18  1  0  0  0  0
  7 10  1  0  0  0  0
  7 19  1  0  0  0  0
  7 20  1  0  0  0  0
  8  9  1  0  0  0  0
  8 12  2  0  0  0  0
  9 21  1  0  0  0  0
  9 22  1  0  0  0  0
  9 23  1  0  0  0  0
 10 13  1  0  0  0  0
 12 24  1  0  0  0  0
 12 25  1  0  0  0  0
 13 26  1  0  0  0  0
 13 27  1  0  0  0  0
 13 28  1  0  0  0  0
M  END
> <PUBCHEM_COMPOUND_CID>
4488713

> <PUBCHEM_CONFORMER_RMSD>
0.6

> <PUBCHEM_CONFORMER_DIVERSEORDER>
1
160
168
114
172
156
39
64
186
17
115
190
87
161
5
34
122
167
177
111
133
145
188
175
71
126
8
94
85
146
83
176
9
107
59
33
123
3
171
139
11
7
173
185
148
6
109
179
26
162
183
78
24
105
149
184
187
80
54
57
130
15
178
125
79
88
2
166
155
98
23
101
151
69
158
52
137
142
147
154
10
128
118
93
50
4
40
82
81
108
43
30
150
131
181
89
97
28
182
29
63
141
180
22
144
134
153
132
189
92
164
76
106
170
60
110
47
48
165
138
157
53
27
104
86
65
16
45
75
58
14
135
13
102
56
116
100
91
84
143
41
77
20
119
12
31
174
37
68
74
19
44
140
113
129
95
120
112
159
51
36
32
35
67
46
38
61
103
70
124
121
163
152
90
25
136
169
49
96
18
62
55
42
66
21
73
72
99
117
127

> <PUBCHEM_MMFF94_PARTIAL_CHARGES>
15
1 -0.65
10 0.45
11 0.66
12 -0.3
13 0.06
2 -0.57
24 0.15
25 0.15
29 0.5
3 -0.57
4 0.14
6 0.06
7 0.06
8 -0.28
9 0.14

> <PUBCHEM_EFFECTIVE_ROTOR_COUNT>
6

> <PUBCHEM_PHARMACOPHORE_FEATURES>
5
1 1 acceptor
1 2 acceptor
1 3 acceptor
3 1 3 11 anion
5 4 5 6 7 8 hydrophobe

> <PUBCHEM_HEAVY_ATOM_COUNT>
13

> <PUBCHEM_ATOM_DEF_STEREO_COUNT>
0

> <PUBCHEM_ATOM_UDEF_STEREO_COUNT>
1

> <PUBCHEM_BOND_DEF_STEREO_COUNT>
0

> <PUBCHEM_BOND_UDEF_STEREO_COUNT>
0

> <PUBCHEM_ISOTOPIC_ATOM_COUNT>
0

> <PUBCHEM_COMPONENT_COUNT>
1

> <PUBCHEM_CACTVS_TAUTO_COUNT>
3

> <PUBCHEM_CONFORMER_ID>
00447E0900000001

> <PUBCHEM_MMFF94_ENERGY>
15.1553

> <PUBCHEM_FEATURE_SELFOVERLAP>
25.43

> <PUBCHEM_SHAPE_FINGERPRINT>
10130415 120 18335424560274230809
10219947 1 18201722838245909518
12932764 1 15213293192756675835
13705890 14 14996289093531201242
13922767 16 18413386527796082057
14344429 50 18272096031941113956
14993402 34 18341901791948049710
15375462 189 18260261910971517355
15501101 241 18410003356018317028
17041 49 18202290199473726481
18186145 218 18040426733646912779
20279233 1 14117805721777620701
20339313 130 18041287629233435965
20671657 1 18191032411375094117
20711985 327 18272092686145551724
20871998 22 18270685251301443310
21524375 3 16767318909555888273
2255824 54 18187649162335046039
23526113 38 16805611343111975587
23532345 12 17847065493309452665
23557571 272 15841561730317418505
3248919 1 16056615286977299185
7364860 26 18129380577986245552
81228 2 18047202847098188752
9999458 23 14405185058512415164

> <PUBCHEM_SHAPE_MULTIPOLES>
249.93
7.06
1.75
1.1
5.51
0.97
0.11
-2.48
-0.69
-0.8
0.08
-0.49
0.29
-0.46

> <PUBCHEM_SHAPE_SELFOVERLAP>
474.682

> <PUBCHEM_SHAPE_VOLUME>
153.9

> <PUBCHEM_COORDINATE_TYPE>
2
5
10

$$$$
