45056
  -OEChem-11232109053D

 31 31  0     1  0  0  0  0  0999 V2000
   -0.2722   -2.4320   -0.3067 O   0  0  0  0  0  0  0  0  0  0  0  0
   -0.6726   -0.0362   -0.4939 C   0  0  2  0  0  0  0  0  0  0  0  0
    0.2203   -1.1505    0.0803 C   0  0  2  0  0  0  0  0  0  0  0  0
   -0.0616    1.3479   -0.2330 C   0  0  0  0  0  0  0  0  0  0  0  0
    2.2845    0.3388   -0.1954 C   0  0  1  0  0  0  0  0  0  0  0  0
    1.6575   -1.0389   -0.4351 C   0  0  0  0  0  0  0  0  0  0  0  0
    1.3750    1.4455   -0.7438 C   0  0  0  0  0  0  0  0  0  0  0  0
   -2.0937   -0.0952    0.0734 C   0  0  0  0  0  0  0  0  0  0  0  0
    2.6210    0.5593    1.2815 C   0  0  0  0  0  0  0  0  0  0  0  0
   -2.0743    0.1231    1.5832 C   0  0  0  0  0  0  0  0  0  0  0  0
   -2.9839    0.9381   -0.6105 C   0  0  0  0  0  0  0  0  0  0  0  0
   -0.7410   -0.1899   -1.5805 H   0  0  0  0  0  0  0  0  0  0  0  0
    0.2626   -1.1310    1.1722 H   0  0  0  0  0  0  0  0  0  0  0  0
   -0.0478    1.5978    0.8312 H   0  0  0  0  0  0  0  0  0  0  0  0
   -0.6367    2.1321   -0.7363 H   0  0  0  0  0  0  0  0  0  0  0  0
    3.2328    0.3783   -0.7471 H   0  0  0  0  0  0  0  0  0  0  0  0
    1.6659   -1.2537   -1.5128 H   0  0  0  0  0  0  0  0  0  0  0  0
    2.2744   -1.8262    0.0166 H   0  0  0  0  0  0  0  0  0  0  0  0
    1.3620    1.3797   -1.8397 H   0  0  0  0  0  0  0  0  0  0  0  0
    1.7875    2.4315   -0.4984 H   0  0  0  0  0  0  0  0  0  0  0  0
   -2.5268   -1.0815   -0.1312 H   0  0  0  0  0  0  0  0  0  0  0  0
    3.1110    1.5286    1.4230 H   0  0  0  0  0  0  0  0  0  0  0  0
    1.7341    0.5375    1.9214 H   0  0  0  0  0  0  0  0  0  0  0  0
    3.3089   -0.2148    1.6381 H   0  0  0  0  0  0  0  0  0  0  0  0
   -1.7548    1.1260    1.8780 H   0  0  0  0  0  0  0  0  0  0  0  0
   -3.0957    0.0133    1.9698 H   0  0  0  0  0  0  0  0  0  0  0  0
   -1.4757   -0.6142    2.1217 H   0  0  0  0  0  0  0  0  0  0  0  0
   -2.7563    1.9638   -0.3045 H   0  0  0  0  0  0  0  0  0  0  0  0
   -4.0325    0.7585   -0.3461 H   0  0  0  0  0  0  0  0  0  0  0  0
   -2.9075    0.8727   -1.7008 H   0  0  0  0  0  0  0  0  0  0  0  0
   -1.0638   -2.6181    0.2254 H   0  0  0  0  0  0  0  0  0  0  0  0
  1  3  1  0  0  0  0
  1 31  1  0  0  0  0
  2  3  1  0  0  0  0
  2  4  1  0  0  0  0
  2  8  1  0  0  0  0
  2 12  1  0  0  0  0
  3  6  1  0  0  0  0
  3 13  1  0  0  0  0
  4  7  1  0  0  0  0
  4 14  1  0  0  0  0
  4 15  1  0  0  0  0
  5  6  1  0  0  0  0
  5  7  1  0  0  0  0
  5  9  1  0  0  0  0
  5 16  1  0  0  0  0
  6 17  1  0  0  0  0
  6 18  1  0  0  0  0
  7 19  1  0  0  0  0
  7 20  1  0  0  0  0
  8 10  1  0  0  0  0
  8 11  1  0  0  0  0
  8 21  1  0  0  0  0
  9 22  1  0  0  0  0
  9 23  1  0  0  0  0
  9 24  1  0  0  0  0
 10 25  1  0  0  0  0
 10 26  1  0  0  0  0
 10 27  1  0  0  0  0
 11 28  1  0  0  0  0
 11 29  1  0  0  0  0
 11 30  1  0  0  0  0
M  END
> <PUBCHEM_COMPOUND_CID>
45056

> <PUBCHEM_CONFORMER_RMSD>
0.6

> <PUBCHEM_CONFORMER_DIVERSEORDER>
1
6
4
2
5
3

> <PUBCHEM_MMFF94_PARTIAL_CHARGES>
3
1 -0.68
3 0.28
31 0.4

> <PUBCHEM_EFFECTIVE_ROTOR_COUNT>
2.2

> <PUBCHEM_PHARMACOPHORE_FEATURES>
4
1 1 acceptor
1 1 donor
3 8 10 11 hydrophobe
6 2 3 4 5 6 7 rings

> <PUBCHEM_HEAVY_ATOM_COUNT>
11

> <PUBCHEM_ATOM_DEF_STEREO_COUNT>
3

> <PUBCHEM_ATOM_UDEF_STEREO_COUNT>
0

> <PUBCHEM_BOND_DEF_STEREO_COUNT>
0

> <PUBCHEM_BOND_UDEF_STEREO_COUNT>
0

> <PUBCHEM_ISOTOPIC_ATOM_COUNT>
0

> <PUBCHEM_COMPONENT_COUNT>
1

> <PUBCHEM_CACTVS_TAUTO_COUNT>
1

> <PUBCHEM_CONFORMER_ID>
0000B00000000001

> <PUBCHEM_MMFF94_ENERGY>
22.595

> <PUBCHEM_FEATURE_SELFOVERLAP>
20.297

> <PUBCHEM_SHAPE_FINGERPRINT>
10219947 1 18408319960629271540
10857977 72 18186810187839582721
11680611 10 17898565634106659850
12423570 1 12734729821184917438
15310529 11 16732984270976187636
15775835 57 17632026255701524897
16945 1 18410298024997261652
20201158 50 18187644639992887797
21028194 46 18273215326098454538
21040471 1 18339645641300591734
23235685 24 18411418431920618012
23235687 12 13479128034058094968
241688 4 17397827882372230392
2748010 2 18192148192312347300
29004967 10 18260277321229571073
369184 2 17561081418965089225
5084963 1 18273220797949982845
528886 8 18409724041341435117
63268167 104 18272934886229896305

> <PUBCHEM_SHAPE_MULTIPOLES>
220.51
3.86
1.71
1.14
0.83
0.71
0.5
-1.06
0.63
-0.2
-0.39
0.08
-0.14
0.22

> <PUBCHEM_SHAPE_SELFOVERLAP>
427.259

> <PUBCHEM_SHAPE_VOLUME>
134.2

> <PUBCHEM_COORDINATE_TYPE>
2
5
10

$$$$
