45086247
  -OEChem-11232108503D

 26 27  0     1  0  0  0  0  0999 V2000
    3.0282   -0.0184   -1.3555 O   0  0  0  0  0  0  0  0  0  0  0  0
   -1.1242    0.8297    0.5999 C   0  0  1  0  0  0  0  0  0  0  0  0
   -1.6211   -0.6216    0.7472 C   0  0  2  0  0  0  0  0  0  0  0  0
    0.3921    1.0116    0.6619 C   0  0  0  0  0  0  0  0  0  0  0  0
   -1.7830    1.3348   -0.6929 C   0  0  0  0  0  0  0  0  0  0  0  0
   -0.7764   -1.6841    0.0220 C   0  0  0  0  0  0  0  0  0  0  0  0
   -2.9798   -0.5126    0.1097 C   0  0  0  0  0  0  0  0  0  0  0  0
    1.1713   -0.1190    0.0759 C   0  0  0  0  0  0  0  0  0  0  0  0
   -3.0586    0.5538   -0.6956 C   0  0  0  0  0  0  0  0  0  0  0  0
    0.6585   -1.3219   -0.2077 C   0  0  0  0  0  0  0  0  0  0  0  0
    2.5940    0.0923   -0.2073 C   0  0  0  0  0  0  0  0  0  0  0  0
    3.4989    0.4554    0.9425 C   0  0  0  0  0  0  0  0  0  0  0  0
   -1.5508    1.4240    1.4245 H   0  0  0  0  0  0  0  0  0  0  0  0
   -1.7100   -0.8715    1.8110 H   0  0  0  0  0  0  0  0  0  0  0  0
    0.6671    1.9549    0.1743 H   0  0  0  0  0  0  0  0  0  0  0  0
    0.6842    1.1076    1.7158 H   0  0  0  0  0  0  0  0  0  0  0  0
   -1.1946    1.1147   -1.5896 H   0  0  0  0  0  0  0  0  0  0  0  0
   -1.9700    2.4117   -0.6414 H   0  0  0  0  0  0  0  0  0  0  0  0
   -1.2084   -1.9341   -0.9562 H   0  0  0  0  0  0  0  0  0  0  0  0
   -0.8116   -2.6123    0.6068 H   0  0  0  0  0  0  0  0  0  0  0  0
   -3.7704   -1.2366    0.2444 H   0  0  0  0  0  0  0  0  0  0  0  0
   -3.9218    0.8066   -1.2934 H   0  0  0  0  0  0  0  0  0  0  0  0
    1.2872   -2.0996   -0.6351 H   0  0  0  0  0  0  0  0  0  0  0  0
    3.6801    1.5330    0.9351 H   0  0  0  0  0  0  0  0  0  0  0  0
    3.0516    0.1668    1.8978 H   0  0  0  0  0  0  0  0  0  0  0  0
    4.4448   -0.0834    0.8386 H   0  0  0  0  0  0  0  0  0  0  0  0
  1 11  2  0  0  0  0
  2  3  1  0  0  0  0
  2  4  1  0  0  0  0
  2  5  1  0  0  0  0
  2 13  1  0  0  0  0
  3  6  1  0  0  0  0
  3  7  1  0  0  0  0
  3 14  1  0  0  0  0
  4  8  1  0  0  0  0
  4 15  1  0  0  0  0
  4 16  1  0  0  0  0
  5  9  1  0  0  0  0
  5 17  1  0  0  0  0
  5 18  1  0  0  0  0
  6 10  1  0  0  0  0
  6 19  1  0  0  0  0
  6 20  1  0  0  0  0
  7  9  2  0  0  0  0
  7 21  1  0  0  0  0
  8 10  2  0  0  0  0
  8 11  1  0  0  0  0
  9 22  1  0  0  0  0
 10 23  1  0  0  0  0
 11 12  1  0  0  0  0
 12 24  1  0  0  0  0
 12 25  1  0  0  0  0
 12 26  1  0  0  0  0
M  END
> <PUBCHEM_COMPOUND_CID>
45086247

> <PUBCHEM_CONFORMER_RMSD>
0.4

> <PUBCHEM_CONFORMER_DIVERSEORDER>
3
5
2
10
9
8
7
6
4
1

> <PUBCHEM_MMFF94_PARTIAL_CHARGES>
14
1 -0.57
10 -0.29
11 0.49
12 0.06
21 0.15
22 0.15
23 0.15
3 0.14
4 0.14
5 0.14
6 0.14
7 -0.29
8 -0.12
9 -0.29

> <PUBCHEM_EFFECTIVE_ROTOR_COUNT>
1.6

> <PUBCHEM_PHARMACOPHORE_FEATURES>
3
1 1 acceptor
5 2 3 5 7 9 rings
6 2 3 4 6 8 10 rings

> <PUBCHEM_HEAVY_ATOM_COUNT>
12

> <PUBCHEM_ATOM_DEF_STEREO_COUNT>
2

> <PUBCHEM_ATOM_UDEF_STEREO_COUNT>
0

> <PUBCHEM_BOND_DEF_STEREO_COUNT>
0

> <PUBCHEM_BOND_UDEF_STEREO_COUNT>
0

> <PUBCHEM_ISOTOPIC_ATOM_COUNT>
0

> <PUBCHEM_COMPONENT_COUNT>
1

> <PUBCHEM_CACTVS_TAUTO_COUNT>
5

> <PUBCHEM_CONFORMER_ID>
02AFF62700000003

> <PUBCHEM_MMFF94_ENERGY>
22.6506

> <PUBCHEM_FEATURE_SELFOVERLAP>
15.392

> <PUBCHEM_SHAPE_FINGERPRINT>
11206711 2 18410571773618028773
12138202 97 18040710364423133279
12162725 195 17167581579050925380
12897270 3 18412262809416088637
12932764 1 18187652431053019880
13024252 1 16008749134603960411
14325111 11 18410290289829674800
15775835 57 18334011674815774299
16945 1 18409172125116727827
17844478 74 18262532467286880371
17846911 113 18412255134219899025
18186145 218 18201723916261588848
18534176 82 17968104143999841315
19026448 5 16443063919471640795
20201158 50 18272649056140510218
20279233 1 18201718466158878882
20645464 45 18130500920389705306
20645476 183 17822582697716384070
20653085 51 17531539671719698749
21028194 46 18408322155484127854
21293036 1 18272646870139248191
23235685 24 18411978044605186073
23402539 116 17822276995034488999
23402655 69 18197198280085678261
23552423 10 18047190748328433035
23559900 14 18343585145078044260
2748010 2 18266467503138081519
3248919 1 17022903458349177954
369184 2 18411980256254848267
5084963 1 18410864269111373698
528886 8 18412820262127804377
57812782 119 18187358826967306864
6333449 129 18130500941790896346
7364860 26 18196927765132459002

> <PUBCHEM_SHAPE_MULTIPOLES>
241.09
5.16
1.4
1
2.2
0.27
0.09
-0.77
0.47
-0.5
0.02
0.34
-0.12
0.42

> <PUBCHEM_SHAPE_SELFOVERLAP>
505.778

> <PUBCHEM_SHAPE_VOLUME>
136.7

> <PUBCHEM_COORDINATE_TYPE>
2
5
10

$$$$
