4574094
  -OEChem-11232108483D

 30 30  0     0  0  0  0  0  0999 V2000
    2.5197    0.4083   -1.8890 O   0  0  0  0  0  0  0  0  0  0  0  0
    1.4651   -0.2421    1.4713 C   0  0  0  0  0  0  0  0  0  0  0  0
    2.2566   -1.4896    1.0811 C   0  0  0  0  0  0  0  0  0  0  0  0
    1.2595    0.4451    0.1605 C   0  0  0  0  0  0  0  0  0  0  0  0
    3.1529   -1.0812   -0.0888 C   0  0  0  0  0  0  0  0  0  0  0  0
   -0.7891    1.7652    0.7317 C   0  0  0  0  0  0  0  0  0  0  0  0
   -2.1976    1.3990    0.2532 C   0  0  0  0  0  0  0  0  0  0  0  0
    2.3253   -0.0247   -0.7648 C   0  0  0  0  0  0  0  0  0  0  0  0
    0.2892    1.2871   -0.1957 C   0  0  0  0  0  0  0  0  0  0  0  0
   -2.4183   -0.1123    0.1372 C   0  0  0  0  0  0  0  0  0  0  0  0
   -3.8257   -0.4287   -0.3701 C   0  0  0  0  0  0  0  0  0  0  0  0
   -4.0378   -1.9261   -0.5267 C   0  0  0  0  0  0  0  0  0  0  0  0
    2.0568    0.3927    2.1400 H   0  0  0  0  0  0  0  0  0  0  0  0
    0.5346   -0.5233    1.9718 H   0  0  0  0  0  0  0  0  0  0  0  0
    2.8371   -1.8868    1.9197 H   0  0  0  0  0  0  0  0  0  0  0  0
    1.5657   -2.2790    0.7565 H   0  0  0  0  0  0  0  0  0  0  0  0
    3.3444   -1.9234   -0.7577 H   0  0  0  0  0  0  0  0  0  0  0  0
    4.0911   -0.6380    0.2569 H   0  0  0  0  0  0  0  0  0  0  0  0
   -0.6493    1.3948    1.7529 H   0  0  0  0  0  0  0  0  0  0  0  0
   -0.7174    2.8581    0.7955 H   0  0  0  0  0  0  0  0  0  0  0  0
   -2.3846    1.8712   -0.7199 H   0  0  0  0  0  0  0  0  0  0  0  0
   -2.9281    1.8217    0.9538 H   0  0  0  0  0  0  0  0  0  0  0  0
    0.2677    1.6866   -1.2068 H   0  0  0  0  0  0  0  0  0  0  0  0
   -2.2624   -0.5825    1.1157 H   0  0  0  0  0  0  0  0  0  0  0  0
   -1.6885   -0.5511   -0.5528 H   0  0  0  0  0  0  0  0  0  0  0  0
   -4.5710   -0.0292    0.3274 H   0  0  0  0  0  0  0  0  0  0  0  0
   -3.9919    0.0591   -1.3377 H   0  0  0  0  0  0  0  0  0  0  0  0
   -3.9072   -2.4426    0.4296 H   0  0  0  0  0  0  0  0  0  0  0  0
   -3.3295   -2.3498   -1.2459 H   0  0  0  0  0  0  0  0  0  0  0  0
   -5.0508   -2.1297   -0.8875 H   0  0  0  0  0  0  0  0  0  0  0  0
  1  8  2  0  0  0  0
  2  3  1  0  0  0  0
  2  4  1  0  0  0  0
  2 13  1  0  0  0  0
  2 14  1  0  0  0  0
  3  5  1  0  0  0  0
  3 15  1  0  0  0  0
  3 16  1  0  0  0  0
  4  8  1  0  0  0  0
  4  9  2  3  0  0  0
  5  8  1  0  0  0  0
  5 17  1  0  0  0  0
  5 18  1  0  0  0  0
  6  7  1  0  0  0  0
  6  9  1  0  0  0  0
  6 19  1  0  0  0  0
  6 20  1  0  0  0  0
  7 10  1  0  0  0  0
  7 21  1  0  0  0  0
  7 22  1  0  0  0  0
  9 23  1  0  0  0  0
 10 11  1  0  0  0  0
 10 24  1  0  0  0  0
 10 25  1  0  0  0  0
 11 12  1  0  0  0  0
 11 26  1  0  0  0  0
 11 27  1  0  0  0  0
 12 28  1  0  0  0  0
 12 29  1  0  0  0  0
 12 30  1  0  0  0  0
M  END
> <PUBCHEM_COMPOUND_CID>
4574094

> <PUBCHEM_CONFORMER_RMSD>
0.6

> <PUBCHEM_CONFORMER_DIVERSEORDER>
4
2
35
27
31
18
38
32
14
42
37
3
39
1
28
7
40
30
5
13
41
20
25
33
19
34
8
12
17
36
9
10
6
11
26
29
16
21
23
24
15
22

> <PUBCHEM_MMFF94_PARTIAL_CHARGES>
8
1 -0.57
2 0.14
23 0.15
4 -0.12
5 0.06
6 0.14
8 0.49
9 -0.29

> <PUBCHEM_EFFECTIVE_ROTOR_COUNT>
4.6

> <PUBCHEM_PHARMACOPHORE_FEATURES>
4
1 1 acceptor
1 12 hydrophobe
5 2 3 4 5 8 rings
5 6 7 9 10 11 hydrophobe

> <PUBCHEM_HEAVY_ATOM_COUNT>
12

> <PUBCHEM_ATOM_DEF_STEREO_COUNT>
0

> <PUBCHEM_ATOM_UDEF_STEREO_COUNT>
0

> <PUBCHEM_BOND_DEF_STEREO_COUNT>
0

> <PUBCHEM_BOND_UDEF_STEREO_COUNT>
1

> <PUBCHEM_ISOTOPIC_ATOM_COUNT>
0

> <PUBCHEM_COMPONENT_COUNT>
1

> <PUBCHEM_CACTVS_TAUTO_COUNT>
5

> <PUBCHEM_CONFORMER_ID>
0045CB8E00000004

> <PUBCHEM_MMFF94_ENERGY>
5.847

> <PUBCHEM_FEATURE_SELFOVERLAP>
20.297

> <PUBCHEM_SHAPE_FINGERPRINT>
10465860 228 9439139657671553253
11471102 22 15195279785857267928
12202030 40 17345483578374386580
12932764 1 18335428915387523305
13296908 3 18201712977343824369
14252887 29 17846220024338387899
15757776 16 17968092019148805170
17844478 74 16200148742696357536
1798214 55 10665214935487579335
18186145 218 14201396054287163661
18522851 12 18339659853542650563
18915474 69 18335423473568740911
19107657 162 17775567541920832167
19766037 51 18337679732054247635
20291156 8 18412260675213156735
20645477 70 18055625377477808511
21665062 11 11959734884181624418
230 275 8069758398500404033
23402655 69 17531246089362244661
251288 83 17345455149991239315
449060 23 18272097080102797829
568465 68 16558460886174784566
5902787 121 18273208690558832753
603831 33 18260274039900969781
94968 8 18338234993889595403

> <PUBCHEM_SHAPE_MULTIPOLES>
241.09
6.67
1.84
1.25
5.39
0.08
-0.16
4.05
-1.33
1.12
0.2
-1.11
0.03
-0.84

> <PUBCHEM_SHAPE_SELFOVERLAP>
468.818

> <PUBCHEM_SHAPE_VOLUME>
148

> <PUBCHEM_COORDINATE_TYPE>
2
5
10

$$$$
