46779070
  -OEChem-11232109003D

 23 22  0     0  0  0  0  0  0999 V2000
    2.7572    0.9837   -0.2648 S   0  0  0  0  0  0  0  0  0  0  0  0
    1.5670   -1.2898    0.3454 O   0  0  0  0  0  0  0  0  0  0  0  0
   -2.4816    0.1192   -0.3261 C   0  0  0  0  0  0  0  0  0  0  0  0
   -1.0941   -0.4743   -0.0218 C   0  0  0  0  0  0  0  0  0  0  0  0
    0.0532    0.5154   -0.2397 C   0  0  0  0  0  0  0  0  0  0  0  0
   -2.8038    1.3296    0.5514 C   0  0  0  0  0  0  0  0  0  0  0  0
   -3.5573   -0.9538   -0.1414 C   0  0  0  0  0  0  0  0  0  0  0  0
    1.4067   -0.1269   -0.0030 C   0  0  0  0  0  0  0  0  0  0  0  0
    4.1528   -0.1031    0.1000 C   0  0  0  0  0  0  0  0  0  0  0  0
   -2.5031    0.4412   -1.3750 H   0  0  0  0  0  0  0  0  0  0  0  0
   -0.9344   -1.3531   -0.6605 H   0  0  0  0  0  0  0  0  0  0  0  0
   -1.0663   -0.8389    1.0135 H   0  0  0  0  0  0  0  0  0  0  0  0
   -0.0400    1.3584    0.4532 H   0  0  0  0  0  0  0  0  0  0  0  0
    0.0189    0.8942   -1.2677 H   0  0  0  0  0  0  0  0  0  0  0  0
   -2.7077    1.0862    1.6149 H   0  0  0  0  0  0  0  0  0  0  0  0
   -3.8287    1.6743    0.3756 H   0  0  0  0  0  0  0  0  0  0  0  0
   -2.1408    2.1714    0.3307 H   0  0  0  0  0  0  0  0  0  0  0  0
   -3.5909   -1.3095    0.8941 H   0  0  0  0  0  0  0  0  0  0  0  0
   -4.5472   -0.5611   -0.3971 H   0  0  0  0  0  0  0  0  0  0  0  0
   -3.3636   -1.8147   -0.7900 H   0  0  0  0  0  0  0  0  0  0  0  0
    5.0857    0.4535   -0.0226 H   0  0  0  0  0  0  0  0  0  0  0  0
    4.1639   -0.9551   -0.5850 H   0  0  0  0  0  0  0  0  0  0  0  0
    4.0972   -0.4652    1.1302 H   0  0  0  0  0  0  0  0  0  0  0  0
  1  8  1  0  0  0  0
  1  9  1  0  0  0  0
  2  8  2  0  0  0  0
  3  4  1  0  0  0  0
  3  6  1  0  0  0  0
  3  7  1  0  0  0  0
  3 10  1  0  0  0  0
  4  5  1  0  0  0  0
  4 11  1  0  0  0  0
  4 12  1  0  0  0  0
  5  8  1  0  0  0  0
  5 13  1  0  0  0  0
  5 14  1  0  0  0  0
  6 15  1  0  0  0  0
  6 16  1  0  0  0  0
  6 17  1  0  0  0  0
  7 18  1  0  0  0  0
  7 19  1  0  0  0  0
  7 20  1  0  0  0  0
  9 21  1  0  0  0  0
  9 22  1  0  0  0  0
  9 23  1  0  0  0  0
M  END
> <PUBCHEM_COMPOUND_CID>
46779070

> <PUBCHEM_CONFORMER_RMSD>
0.6

> <PUBCHEM_CONFORMER_DIVERSEORDER>
1
50
39
14
37
15
52
44
4
46
48
3
18
23
51
8
34
31
24
6
42
49
7
36
41
11
43
35
40
17
47
10
45
20
26
29
25
28
16
13
38
12
9
2
21
19
30
33
27
32
22
5

> <PUBCHEM_MMFF94_PARTIAL_CHARGES>
5
1 -0.37
2 -0.57
5 0.06
8 0.65
9 0.23

> <PUBCHEM_EFFECTIVE_ROTOR_COUNT>
4

> <PUBCHEM_PHARMACOPHORE_FEATURES>
2
1 9 hydrophobe
3 3 6 7 hydrophobe

> <PUBCHEM_HEAVY_ATOM_COUNT>
9

> <PUBCHEM_ATOM_DEF_STEREO_COUNT>
0

> <PUBCHEM_ATOM_UDEF_STEREO_COUNT>
0

> <PUBCHEM_BOND_DEF_STEREO_COUNT>
0

> <PUBCHEM_BOND_UDEF_STEREO_COUNT>
0

> <PUBCHEM_ISOTOPIC_ATOM_COUNT>
0

> <PUBCHEM_COMPONENT_COUNT>
1

> <PUBCHEM_CACTVS_TAUTO_COUNT>
1

> <PUBCHEM_CONFORMER_ID>
02C9CABE00000001

> <PUBCHEM_MMFF94_ENERGY>
7.3263

> <PUBCHEM_FEATURE_SELFOVERLAP>
10.149

> <PUBCHEM_SHAPE_FINGERPRINT>
10219947 1 17167863080119082764
11062470 55 8286207149490174406
12932764 1 16630234853499448255
14325111 11 18410856572730504292
14390081 3 18342738532997092145
190213 19 18272932721756315764
20279233 1 15791450413812616339
20645464 45 16660369164497701201
20711985 327 17603309262515081140
20719005 15 18409166627495330798
23402539 116 18201993352945830309
3248919 1 18271797978564538687

> <PUBCHEM_SHAPE_MULTIPOLES>
183.2
7.12
1.23
0.69
1.94
0.11
0
-0.08
0.15
-0.4
0.12
-0.06
0.06
-0.42

> <PUBCHEM_SHAPE_SELFOVERLAP>
318.804

> <PUBCHEM_SHAPE_VOLUME>
122.7

> <PUBCHEM_COORDINATE_TYPE>
2
5
10

$$$$
