46941523
  -OEChem-11232109413D

 49 49  0     1  0  0  0  0  0999 V2000
   -1.2496    1.3025    0.7172 S   0  0  0  0  0  0  0  0  0  0  0  0
   -0.5769   -1.6483    0.7045 S   0  0  0  0  0  0  0  0  0  0  0  0
    1.3243    0.3380    0.5740 N   0  0  0  0  0  0  0  0  0  0  0  0
    0.4539    1.3952    0.0615 C   0  0  2  0  0  0  0  0  0  0  0  0
    0.9975   -0.9880    0.0517 C   0  0  1  0  0  0  0  0  0  0  0  0
   -1.7300   -0.3565    0.1337 C   0  0  0  0  0  0  0  0  0  0  0  0
    1.0442    2.7428    0.4787 C   0  0  0  0  0  0  0  0  0  0  0  0
    2.1141   -1.9495    0.4602 C   0  0  0  0  0  0  0  0  0  0  0  0
   -3.1801   -0.6887    0.4680 C   0  0  0  0  0  0  0  0  0  0  0  0
    2.4652    2.9761   -0.0553 C   0  0  0  0  0  0  0  0  0  0  0  0
    1.8944   -3.3848   -0.0402 C   0  0  0  0  0  0  0  0  0  0  0  0
   -4.1858    0.3366   -0.0807 C   0  0  0  0  0  0  0  0  0  0  0  0
    2.9936    4.3169    0.4601 C   0  0  0  0  0  0  0  0  0  0  0  0
    2.5284    2.9485   -1.5830 C   0  0  0  0  0  0  0  0  0  0  0  0
    3.0257   -4.2834    0.4649 C   0  0  0  0  0  0  0  0  0  0  0  0
    1.8110   -3.4667   -1.5650 C   0  0  0  0  0  0  0  0  0  0  0  0
   -4.1270    0.4542   -1.6044 C   0  0  0  0  0  0  0  0  0  0  0  0
   -5.6028   -0.0449    0.3542 C   0  0  0  0  0  0  0  0  0  0  0  0
    0.3841    1.3516   -1.0304 H   0  0  0  0  0  0  0  0  0  0  0  0
    0.9398   -0.9430   -1.0408 H   0  0  0  0  0  0  0  0  0  0  0  0
   -1.6268   -0.3502   -0.9559 H   0  0  0  0  0  0  0  0  0  0  0  0
    1.0639    2.8250    1.5751 H   0  0  0  0  0  0  0  0  0  0  0  0
    0.3980    3.5558    0.1186 H   0  0  0  0  0  0  0  0  0  0  0  0
    2.2250   -1.9621    1.5543 H   0  0  0  0  0  0  0  0  0  0  0  0
    3.0702   -1.5771    0.0657 H   0  0  0  0  0  0  0  0  0  0  0  0
    1.2945    0.3274    1.5927 H   0  0  0  0  0  0  0  0  0  0  0  0
   -3.3028   -0.7613    1.5576 H   0  0  0  0  0  0  0  0  0  0  0  0
   -3.4302   -1.6796    0.0642 H   0  0  0  0  0  0  0  0  0  0  0  0
    3.1387    2.1999    0.3282 H   0  0  0  0  0  0  0  0  0  0  0  0
    0.9752   -3.8121    0.3735 H   0  0  0  0  0  0  0  0  0  0  0  0
   -3.9943    1.3273    0.3460 H   0  0  0  0  0  0  0  0  0  0  0  0
    2.3804    5.1509    0.1018 H   0  0  0  0  0  0  0  0  0  0  0  0
    4.0225    4.4852    0.1245 H   0  0  0  0  0  0  0  0  0  0  0  0
    2.9937    4.3412    1.5550 H   0  0  0  0  0  0  0  0  0  0  0  0
    1.8119    3.6500   -2.0235 H   0  0  0  0  0  0  0  0  0  0  0  0
    2.3176    1.9496   -1.9765 H   0  0  0  0  0  0  0  0  0  0  0  0
    3.5285    3.2247   -1.9346 H   0  0  0  0  0  0  0  0  0  0  0  0
    3.0738   -4.2722    1.5590 H   0  0  0  0  0  0  0  0  0  0  0  0
    2.8704   -5.3210    0.1502 H   0  0  0  0  0  0  0  0  0  0  0  0
    3.9969   -3.9555    0.0788 H   0  0  0  0  0  0  0  0  0  0  0  0
    0.9101   -2.9794   -1.9489 H   0  0  0  0  0  0  0  0  0  0  0  0
    1.7728   -4.5107   -1.8954 H   0  0  0  0  0  0  0  0  0  0  0  0
    2.6821   -2.9987   -2.0360 H   0  0  0  0  0  0  0  0  0  0  0  0
   -4.9295    1.1023   -1.9739 H   0  0  0  0  0  0  0  0  0  0  0  0
   -3.1841    0.8940   -1.9418 H   0  0  0  0  0  0  0  0  0  0  0  0
   -4.2405   -0.5245   -2.0828 H   0  0  0  0  0  0  0  0  0  0  0  0
   -5.6752   -0.0946    1.4459 H   0  0  0  0  0  0  0  0  0  0  0  0
   -6.3306    0.6960    0.0065 H   0  0  0  0  0  0  0  0  0  0  0  0
   -5.8940   -1.0203   -0.0503 H   0  0  0  0  0  0  0  0  0  0  0  0
  1  4  1  0  0  0  0
  1  6  1  0  0  0  0
  2  5  1  0  0  0  0
  2  6  1  0  0  0  0
  3  4  1  0  0  0  0
  3  5  1  0  0  0  0
  3 26  1  0  0  0  0
  4  7  1  0  0  0  0
  4 19  1  0  0  0  0
  5  8  1  0  0  0  0
  5 20  1  0  0  0  0
  6  9  1  0  0  0  0
  6 21  1  0  0  0  0
  7 10  1  0  0  0  0
  7 22  1  0  0  0  0
  7 23  1  0  0  0  0
  8 11  1  0  0  0  0
  8 24  1  0  0  0  0
  8 25  1  0  0  0  0
  9 12  1  0  0  0  0
  9 27  1  0  0  0  0
  9 28  1  0  0  0  0
 10 13  1  0  0  0  0
 10 14  1  0  0  0  0
 10 29  1  0  0  0  0
 11 15  1  0  0  0  0
 11 16  1  0  0  0  0
 11 30  1  0  0  0  0
 12 17  1  0  0  0  0
 12 18  1  0  0  0  0
 12 31  1  0  0  0  0
 13 32  1  0  0  0  0
 13 33  1  0  0  0  0
 13 34  1  0  0  0  0
 14 35  1  0  0  0  0
 14 36  1  0  0  0  0
 14 37  1  0  0  0  0
 15 38  1  0  0  0  0
 15 39  1  0  0  0  0
 15 40  1  0  0  0  0
 16 41  1  0  0  0  0
 16 42  1  0  0  0  0
 16 43  1  0  0  0  0
 17 44  1  0  0  0  0
 17 45  1  0  0  0  0
 17 46  1  0  0  0  0
 18 47  1  0  0  0  0
 18 48  1  0  0  0  0
 18 49  1  0  0  0  0
M  END
> <PUBCHEM_COMPOUND_CID>
46941523

> <PUBCHEM_CONFORMER_RMSD>
0.8

> <PUBCHEM_CONFORMER_DIVERSEORDER>
1
90
24
128
53
132
13
138
23
140
46
93
124
91
66
54
123
107
57
94
112
70
6
126
119
32
83
67
76
133
19
135
106
100
5
125
45
101
89
103
21
73
59
39
120
64
130
16
102
29
63
30
25
92
113
111
17
11
114
131
127
81
77
48
134
71
9
38
117
95
44
14
72
105
68
104
118
55
74
12
40
4
115
136
60
26
75
96
8
80
87
139
97
28
51
41
110
31
33
98
61
27
121
10
18
3
69
82
109
84
20
36
99
116
15
35
43
86
78
7
122
108
22
85
50
2
52
58
47
129
65
37
137
34
56
49
88
79
62
42

> <PUBCHEM_MMFF94_PARTIAL_CHARGES>
7
1 -0.46
2 -0.46
26 0.36
3 -0.9
4 0.5
5 0.5
6 0.46

> <PUBCHEM_EFFECTIVE_ROTOR_COUNT>
7.2

> <PUBCHEM_PHARMACOPHORE_FEATURES>
6
1 3 cation
1 3 donor
3 10 13 14 hydrophobe
3 11 15 16 hydrophobe
3 12 17 18 hydrophobe
6 1 2 3 4 5 6 rings

> <PUBCHEM_HEAVY_ATOM_COUNT>
18

> <PUBCHEM_ATOM_DEF_STEREO_COUNT>
0

> <PUBCHEM_ATOM_UDEF_STEREO_COUNT>
2

> <PUBCHEM_BOND_DEF_STEREO_COUNT>
0

> <PUBCHEM_BOND_UDEF_STEREO_COUNT>
0

> <PUBCHEM_ISOTOPIC_ATOM_COUNT>
0

> <PUBCHEM_COMPONENT_COUNT>
1

> <PUBCHEM_CACTVS_TAUTO_COUNT>
1

> <PUBCHEM_CONFORMER_ID>
02CC455300000001

> <PUBCHEM_MMFF94_ENERGY>
27.7942

> <PUBCHEM_FEATURE_SELFOVERLAP>
30.447

> <PUBCHEM_SHAPE_FINGERPRINT>
10411042 1 18122344575573804683
11045515 52 17972883548935680119
11833330 49 17760648066500651298
12500047 106 17763181741034924088
12532896 13 17908989047261379292
12553582 1 17979372870953434883
12730499 353 18265063599194524747
12788726 201 17472160379037785410
13052359 8 17618780701315204744
13134695 92 18266171738836942783
13140716 1 18266459995545622570
138480 1 18338798901198477426
13899415 180 18050831239770461903
13955234 65 18410299124851748763
14004458 79 17547867252157817654
14178000 15 18267584615425577657
14178000 22 17834669770658479936
14508225 48 17978219461812196806
15042514 8 16896243309464604178
15081414 286 18339360747355950715
15502722 9 18409449219585603001
15842332 3 17846777421579505911
167882 2 18409164449925806289
17539 30 17474942126133530982
1813 80 18056487140700609127
18785283 64 18261111910863852417
18915476 22 18335968844621862173
19591789 44 17978517755865144186
19784866 34 18197218264004211729
20600515 1 17481712952997400281
20645477 70 18408879651356565051
20671657 53 18194962942237988483
20693207 138 17967825920856972107
21120745 212 17837226878691386748
21304303 282 17406238489374003964
21426921 1 17402049994560670146
21524375 3 17828756579822774489
2255824 54 18342457049562348143
23114952 82 18333167263213961525
23402539 116 17908697337478134323
23419403 2 17606649536196533580
23526113 38 18114471050184978915
23559900 14 18410851053676644659
2748010 2 17976276929708406168
3057174 1 18267025153091076948
3091708 16 9216277433908295226
314173 41 18267027167758597643
458136 41 18337117881501690753
58779409 8 17761501682871897196
59755656 520 17978787136425335908
6025842 7 18411415155176906871
633830 44 17914631672316304437
7164475 11 17616541653291634982
7364860 26 18411139142723454433
77188 2 18194682562308801890
81228 2 17762904259981432538
81539 233 18261951976476324177
9841814 1 18114456752249244291
9981440 41 18121494923736454737

> <PUBCHEM_SHAPE_MULTIPOLES>
373.15
7.62
6.05
1.19
12.94
0.38
-0.57
-0.46
-0.91
-11.73
-0.39
0
0
0.08

> <PUBCHEM_SHAPE_SELFOVERLAP>
682.365

> <PUBCHEM_SHAPE_VOLUME>
238.1

> <PUBCHEM_COORDINATE_TYPE>
2
5
10

$$$$
