49869549
  -OEChem-11232108423D

 34 35  0     0  0  0  0  0  0999 V2000
   -0.1785   -2.4190    0.5818 O   0  0  0  0  0  0  0  0  0  0  0  0
   -2.4758   -2.5561   -0.7716 O   0  0  0  0  0  0  0  0  0  0  0  0
   -5.2749    1.2652   -0.2571 O   0  0  0  0  0  0  0  0  0  0  0  0
    4.1976   -0.1901    0.9990 N   0  0  0  0  0  0  0  0  0  0  0  0
    0.9971   -0.3257    0.3693 C   0  0  0  0  0  0  0  0  0  0  0  0
    2.2314   -1.0847   -0.1231 C   0  0  0  0  0  0  0  0  0  0  0  0
   -0.2766   -1.1889    0.4022 C   0  0  0  0  0  0  0  0  0  0  0  0
   -1.5807   -0.5655    0.2239 C   0  0  0  0  0  0  0  0  0  0  0  0
    3.4574   -0.2084   -0.1320 C   0  0  0  0  0  0  0  0  0  0  0  0
   -2.6370   -1.2681   -0.3561 C   0  0  0  0  0  0  0  0  0  0  0  0
   -1.7660    0.7522    0.6425 C   0  0  0  0  0  0  0  0  0  0  0  0
   -3.8784   -0.6529   -0.5178 C   0  0  0  0  0  0  0  0  0  0  0  0
   -4.0636    0.6649   -0.0995 C   0  0  0  0  0  0  0  0  0  0  0  0
   -3.0073    1.3675    0.4806 C   0  0  0  0  0  0  0  0  0  0  0  0
    3.7628    0.5195   -1.2708 C   0  0  0  0  0  0  0  0  0  0  0  0
    4.9013    1.3173   -1.2472 C   0  0  0  0  0  0  0  0  0  0  0  0
    5.2968    0.5969    0.9847 C   0  0  0  0  0  0  0  0  0  0  0  0
    5.6885    1.3622   -0.1018 C   0  0  0  0  0  0  0  0  0  0  0  0
   -5.3943    2.6140    0.1930 C   0  0  0  0  0  0  0  0  0  0  0  0
    0.8266    0.5324   -0.2921 H   0  0  0  0  0  0  0  0  0  0  0  0
    1.1660    0.0545    1.3840 H   0  0  0  0  0  0  0  0  0  0  0  0
    2.4213   -1.9489    0.5263 H   0  0  0  0  0  0  0  0  0  0  0  0
    2.0516   -1.4970   -1.1239 H   0  0  0  0  0  0  0  0  0  0  0  0
   -0.9679    1.3200    1.1126 H   0  0  0  0  0  0  0  0  0  0  0  0
   -4.7069   -1.1934   -0.9690 H   0  0  0  0  0  0  0  0  0  0  0  0
   -3.0832    2.3912    0.8307 H   0  0  0  0  0  0  0  0  0  0  0  0
    3.1414    0.4787   -2.1589 H   0  0  0  0  0  0  0  0  0  0  0  0
    5.1746    1.9032   -2.1196 H   0  0  0  0  0  0  0  0  0  0  0  0
    5.8763    0.5970    1.9019 H   0  0  0  0  0  0  0  0  0  0  0  0
    6.5802    1.9771   -0.0609 H   0  0  0  0  0  0  0  0  0  0  0  0
   -3.3140   -2.8766   -1.1465 H   0  0  0  0  0  0  0  0  0  0  0  0
   -5.2438    2.6919    1.2751 H   0  0  0  0  0  0  0  0  0  0  0  0
   -4.7347    3.2852   -0.3674 H   0  0  0  0  0  0  0  0  0  0  0  0
   -6.4219    2.9327   -0.0104 H   0  0  0  0  0  0  0  0  0  0  0  0
  1  7  2  0  0  0  0
  2 10  1  0  0  0  0
  2 31  1  0  0  0  0
  3 13  1  0  0  0  0
  3 19  1  0  0  0  0
  4  9  1  0  0  0  0
  4 17  2  0  0  0  0
  5  6  1  0  0  0  0
  5  7  1  0  0  0  0
  5 20  1  0  0  0  0
  5 21  1  0  0  0  0
  6  9  1  0  0  0  0
  6 22  1  0  0  0  0
  6 23  1  0  0  0  0
  7  8  1  0  0  0  0
  8 10  2  0  0  0  0
  8 11  1  0  0  0  0
  9 15  2  0  0  0  0
 10 12  1  0  0  0  0
 11 14  2  0  0  0  0
 11 24  1  0  0  0  0
 12 13  2  0  0  0  0
 12 25  1  0  0  0  0
 13 14  1  0  0  0  0
 14 26  1  0  0  0  0
 15 16  1  0  0  0  0
 15 27  1  0  0  0  0
 16 18  2  0  0  0  0
 16 28  1  0  0  0  0
 17 18  1  0  0  0  0
 17 29  1  0  0  0  0
 18 30  1  0  0  0  0
 19 32  1  0  0  0  0
 19 33  1  0  0  0  0
 19 34  1  0  0  0  0
M  END
> <PUBCHEM_COMPOUND_CID>
49869549

> <PUBCHEM_CONFORMER_RMSD>
0.8

> <PUBCHEM_CONFORMER_DIVERSEORDER>
1
40
69
130
38
13
31
127
15
126
103
122
2
79
97
22
46
121
48
6
95
100
123
91
12
67
34
44
26
27
58
109
129
101
116
53
29
98
11
20
68
106
75
61
73
28
76
50
119
60
63
59
24
55
39
128
70
23
110
14
64
82
74
78
88
65
104
66
111
77
21
10
62
9
114
49
89
8
94
120
117
87
107
18
16
19
57
4
3
118
80
102
81
37
92
125
108
99
42
72
54
32
51
17
124
45
84
25
5
7
43
35
33
47
30
112
115
85
131
36
41
56
113
90
96
105
52
86
83
71
93

> <PUBCHEM_MMFF94_PARTIAL_CHARGES>
27
1 -0.57
10 0.08
11 -0.15
12 -0.15
13 0.08
14 -0.15
15 -0.15
16 -0.15
17 0.16
18 -0.15
19 0.28
2 -0.53
24 0.15
25 0.15
26 0.15
27 0.15
28 0.15
29 0.15
3 -0.36
30 0.15
31 0.45
4 -0.62
5 0.06
6 0.14
7 0.42
8 0.09
9 0.17

> <PUBCHEM_EFFECTIVE_ROTOR_COUNT>
5

> <PUBCHEM_PHARMACOPHORE_FEATURES>
6
1 1 acceptor
1 2 donor
1 3 acceptor
1 4 acceptor
6 4 9 15 16 17 18 rings
6 8 10 11 12 13 14 rings

> <PUBCHEM_HEAVY_ATOM_COUNT>
19

> <PUBCHEM_ATOM_DEF_STEREO_COUNT>
0

> <PUBCHEM_ATOM_UDEF_STEREO_COUNT>
0

> <PUBCHEM_BOND_DEF_STEREO_COUNT>
0

> <PUBCHEM_BOND_UDEF_STEREO_COUNT>
0

> <PUBCHEM_ISOTOPIC_ATOM_COUNT>
0

> <PUBCHEM_COMPONENT_COUNT>
1

> <PUBCHEM_CACTVS_TAUTO_COUNT>
31

> <PUBCHEM_CONFORMER_ID>
02F8F2ED00000001

> <PUBCHEM_MMFF94_ENERGY>
59.579

> <PUBCHEM_FEATURE_SELFOVERLAP>
30.447

> <PUBCHEM_SHAPE_FINGERPRINT>
10014705 185 18411138034869772849
10411042 1 17835798978239338319
10498660 4 18202006534074081872
10912923 1 17894622703979071810
11128504 68 13110964258263633664
12236239 1 18186515519003017642
12390115 104 18130801018888040993
12596602 18 17022905674499932304
12616971 3 17749102297103573664
12839892 36 12035454930404151553
13288520 33 9223229654926709203
13675066 3 13767919148566423774
1420 369 9727629492792406604
14251764 38 18122905601719617184
14251764 75 17839753556386811945
14790565 3 17984428434535567049
15342168 16 17967822642894643999
15537594 2 11023839387127638556
17834072 32 18408609170905541780
1813 80 11671784896727648346
18222031 100 10879986947976389570
193927 3 9511455662601101020
19427546 20 18411131472977565495
19784866 240 11671774979774742393
200 152 13686306785408368394
20511986 3 18261939830540867692
20645477 56 18342740719441193059
20645477 70 15841565050464203990
20871999 31 18130779092906174839
22079108 93 17095252418879182385
23402539 116 18411974797699652638
23402655 69 18413670205816630966
235170 7 16630255753005769036
23557571 272 18059303170077611750
23559900 14 18202286879780472086
23596394 208 16917083144067847982
268830 7 17676762171616800708
270888 7 18335422348229455908
2767999 5 18334008384850168444
293599 30 18341895152287228177
300161 21 18413385432389458892
3004659 81 18341895130992019050
312423 11 9799405659314840826
3268164 11 18201715206152230998
341906 21 18340763840869214392
3472631 163 18411703183704343653
34797466 226 17489031577559635876
4340502 62 16950855700297931457
441001 317 18343020021053630208
465052 167 8934993789733414592
474 4 18113057121128506058
5104073 3 17241043336006971048
542803 24 18113899377289719560
57724786 102 16878237445508489148
59682541 52 16844731898172306260
633830 44 18113901554854645026
960060 61 14405183963153225968
9981440 41 18408042935281631770

> <PUBCHEM_SHAPE_MULTIPOLES>
368.42
13.8
2.22
0.99
6.29
0.22
0.1
-9.53
0.98
-2.64
0.1
0.97
-0.08
-0.93

> <PUBCHEM_SHAPE_SELFOVERLAP>
783.229

> <PUBCHEM_SHAPE_VOLUME>
203.9

> <PUBCHEM_COORDINATE_TYPE>
2
5
10

$$$$
