49869550
  -OEChem-11232108523D

 43 44  0     0  0  0  0  0  0999 V2000
    4.4119    0.0792    0.2105 O   0  0  0  0  0  0  0  0  0  0  0  0
    0.9731    3.1286   -1.0764 O   0  0  0  0  0  0  0  0  0  0  0  0
   -1.3412    2.7756    0.2070 O   0  0  0  0  0  0  0  0  0  0  0  0
   -5.2361   -0.1676    0.8852 N   0  0  0  0  0  0  0  0  0  0  0  0
    6.0049   -1.6197   -0.4407 C   0  0  0  0  0  0  0  0  0  0  0  0
    4.6872   -1.3139    0.2765 C   0  0  0  0  0  0  0  0  0  0  0  0
   -2.0843    0.4867    0.3415 C   0  0  0  0  0  0  0  0  0  0  0  0
    7.1747   -0.8684    0.1985 C   0  0  0  0  0  0  0  0  0  0  0  0
    6.2756   -3.1226   -0.4399 C   0  0  0  0  0  0  0  0  0  0  0  0
   -3.4044    0.8909   -0.3188 C   0  0  0  0  0  0  0  0  0  0  0  0
    0.4059    1.2020    0.2355 C   0  0  0  0  0  0  0  0  0  0  0  0
    3.0922    0.4491    0.2185 C   0  0  0  0  0  0  0  0  0  0  0  0
   -1.0012    1.5769    0.2569 C   0  0  0  0  0  0  0  0  0  0  0  0
    1.3466    1.9889   -0.4292 C   0  0  0  0  0  0  0  0  0  0  0  0
    0.8085    0.0389    0.8921 C   0  0  0  0  0  0  0  0  0  0  0  0
    2.6897    1.6124   -0.4377 C   0  0  0  0  0  0  0  0  0  0  0  0
    2.1514   -0.3377    0.8834 C   0  0  0  0  0  0  0  0  0  0  0  0
   -4.4397   -0.1984   -0.2067 C   0  0  0  0  0  0  0  0  0  0  0  0
   -4.5265   -1.1571   -1.2034 C   0  0  0  0  0  0  0  0  0  0  0  0
   -5.4930   -2.1478   -1.0708 C   0  0  0  0  0  0  0  0  0  0  0  0
   -6.1637   -1.1466    0.9797 C   0  0  0  0  0  0  0  0  0  0  0  0
   -6.3313   -2.1495    0.0385 C   0  0  0  0  0  0  0  0  0  0  0  0
    5.9243   -1.2766   -1.4801 H   0  0  0  0  0  0  0  0  0  0  0  0
    3.9005   -1.8990   -0.2185 H   0  0  0  0  0  0  0  0  0  0  0  0
    4.7487   -1.6166    1.3290 H   0  0  0  0  0  0  0  0  0  0  0  0
   -1.7116   -0.4217   -0.1471 H   0  0  0  0  0  0  0  0  0  0  0  0
   -2.2450    0.2612    1.4027 H   0  0  0  0  0  0  0  0  0  0  0  0
    8.1121   -1.0989   -0.3190 H   0  0  0  0  0  0  0  0  0  0  0  0
    7.0267    0.2151    0.1448 H   0  0  0  0  0  0  0  0  0  0  0  0
    7.2940   -1.1429    1.2521 H   0  0  0  0  0  0  0  0  0  0  0  0
    5.4628   -3.6652   -0.9341 H   0  0  0  0  0  0  0  0  0  0  0  0
    7.2028   -3.3511   -0.9761 H   0  0  0  0  0  0  0  0  0  0  0  0
    6.3706   -3.5095    0.5804 H   0  0  0  0  0  0  0  0  0  0  0  0
   -3.2399    1.1521   -1.3717 H   0  0  0  0  0  0  0  0  0  0  0  0
   -3.7964    1.7991    0.1566 H   0  0  0  0  0  0  0  0  0  0  0  0
    0.1039   -0.5828    1.4374 H   0  0  0  0  0  0  0  0  0  0  0  0
    3.4295    2.2196   -0.9534 H   0  0  0  0  0  0  0  0  0  0  0  0
    2.4273   -1.2330    1.4327 H   0  0  0  0  0  0  0  0  0  0  0  0
   -3.8667   -1.1478   -2.0644 H   0  0  0  0  0  0  0  0  0  0  0  0
   -5.5927   -2.9174   -1.8304 H   0  0  0  0  0  0  0  0  0  0  0  0
    1.7586    3.5389   -1.4770 H   0  0  0  0  0  0  0  0  0  0  0  0
   -6.7920   -1.1034    1.8632 H   0  0  0  0  0  0  0  0  0  0  0  0
   -7.0917   -2.9119    0.1626 H   0  0  0  0  0  0  0  0  0  0  0  0
  1  6  1  0  0  0  0
  1 12  1  0  0  0  0
  2 14  1  0  0  0  0
  2 41  1  0  0  0  0
  3 13  2  0  0  0  0
  4 18  1  0  0  0  0
  4 21  2  0  0  0  0
  5  6  1  0  0  0  0
  5  8  1  0  0  0  0
  5  9  1  0  0  0  0
  5 23  1  0  0  0  0
  6 24  1  0  0  0  0
  6 25  1  0  0  0  0
  7 10  1  0  0  0  0
  7 13  1  0  0  0  0
  7 26  1  0  0  0  0
  7 27  1  0  0  0  0
  8 28  1  0  0  0  0
  8 29  1  0  0  0  0
  8 30  1  0  0  0  0
  9 31  1  0  0  0  0
  9 32  1  0  0  0  0
  9 33  1  0  0  0  0
 10 18  1  0  0  0  0
 10 34  1  0  0  0  0
 10 35  1  0  0  0  0
 11 13  1  0  0  0  0
 11 14  2  0  0  0  0
 11 15  1  0  0  0  0
 12 16  2  0  0  0  0
 12 17  1  0  0  0  0
 14 16  1  0  0  0  0
 15 17  2  0  0  0  0
 15 36  1  0  0  0  0
 16 37  1  0  0  0  0
 17 38  1  0  0  0  0
 18 19  2  0  0  0  0
 19 20  1  0  0  0  0
 19 39  1  0  0  0  0
 20 22  2  0  0  0  0
 20 40  1  0  0  0  0
 21 22  1  0  0  0  0
 21 42  1  0  0  0  0
 22 43  1  0  0  0  0
M  END
> <PUBCHEM_COMPOUND_CID>
49869550

> <PUBCHEM_CONFORMER_RMSD>
1.2

> <PUBCHEM_CONFORMER_DIVERSEORDER>
1
55
52
40
70
35
50
39
38
53
69
44
17
64
73
41
77
57
34
25
49
19
4
43
63
76
56
27
54
7
14
33
24
10
68
45
71
21
62
67
2
46
59
8
32
42
16
74
15
5
23
11
66
60
61
48
6
36
37
12
58
18
13
3
29
72
28
26
22
31
9
75
47
20
30
51
65

> <PUBCHEM_MMFF94_PARTIAL_CHARGES>
27
1 -0.36
10 0.14
11 0.09
12 0.08
13 0.42
14 0.08
15 -0.15
16 -0.15
17 -0.15
18 0.17
19 -0.15
2 -0.53
20 -0.15
21 0.16
22 -0.15
3 -0.57
36 0.15
37 0.15
38 0.15
39 0.15
4 -0.62
40 0.15
41 0.45
42 0.15
43 0.15
6 0.28
7 0.06

> <PUBCHEM_EFFECTIVE_ROTOR_COUNT>
7

> <PUBCHEM_PHARMACOPHORE_FEATURES>
7
1 1 acceptor
1 2 donor
1 3 acceptor
1 4 acceptor
3 5 8 9 hydrophobe
6 11 12 14 15 16 17 rings
6 4 18 19 20 21 22 rings

> <PUBCHEM_HEAVY_ATOM_COUNT>
22

> <PUBCHEM_ATOM_DEF_STEREO_COUNT>
0

> <PUBCHEM_ATOM_UDEF_STEREO_COUNT>
0

> <PUBCHEM_BOND_DEF_STEREO_COUNT>
0

> <PUBCHEM_BOND_UDEF_STEREO_COUNT>
0

> <PUBCHEM_ISOTOPIC_ATOM_COUNT>
0

> <PUBCHEM_COMPONENT_COUNT>
1

> <PUBCHEM_CACTVS_TAUTO_COUNT>
31

> <PUBCHEM_CONFORMER_ID>
02F8F2EE00000001

> <PUBCHEM_MMFF94_ENERGY>
61.815

> <PUBCHEM_FEATURE_SELFOVERLAP>
35.522

> <PUBCHEM_SHAPE_FINGERPRINT>
10 15 13973962116878604938
11069576 57 16444735057483311394
11089746 13 10953461842714913458
11497681 19 18338802196657374598
11963148 33 18337947879869790950
12107183 9 18270692957169429913
12166972 35 18342459269960272408
12422481 6 17346880013918572534
12592606 108 18412542142212031495
12623949 98 18059582343758993238
12633257 1 15410603826582995573
12760667 363 18410577284076893755
13009979 54 18342745100255782889
13533116 47 18341333387660638056
13540713 5 18265636353989752628
13668630 136 18187362173306435123
13685833 64 18413389830589087362
13690498 29 18113613465807134069
13782708 43 18129937880706564618
13862211 1 18259982644230242186
14123256 34 18408606963266075299
14251764 30 18408602552266116814
14347332 77 18409450250256584404
14556957 393 16806183059346745750
14576447 43 18187641393034490072
14767858 380 17895203190600454278
14931854 50 17749380456503325371
15188451 53 16343132671663934159
15728490 51 18272365408891659694
17780758 139 17632297857144183251
18222031 100 18333444331617451992
19784866 240 18410859862897109617
20028762 73 18342737425170427630
20281389 69 9583514326265129766
20398071 356 18341899562660017726
20645477 70 18041559260203249905
21150785 3 17894636959355179358
21267235 1 18335425672871207595
21365058 113 17530688740236075605
21424621 283 9295279548114675230
21682296 61 18410296917381281747
21774942 28 12540681605883617758
22950370 63 18341051917179166105
23379529 103 18263927803240511451
23424784 1240 17844817992769509902
23522609 53 18124912081106259440
23559900 14 17969223506687144673
270888 7 8646775495229539783
2838139 119 11602830102981254078
2916195 48 8574416639263450412
3004659 81 18186514423601617299
33382 64 17988644056652777818
3472631 163 7925908188600634738
34797466 226 16081930498688103077
351380 3 18411416228655162091
46194498 28 17386001831867684132
465052 167 18342744047687452326
5104073 3 11600007656432443277
54039377 194 18410579499926980415
543368 44 8286204946815847975
559249 180 18344145891708078463
636775 8 18059022658360986334
7808743 9 8502367823896121541
7970288 3 18412259549478493015

> <PUBCHEM_SHAPE_MULTIPOLES>
430.16
18.54
3.04
0.98
2.88
0.23
-0.05
-19.73
-0.45
1.35
-0.87
-0.73
-0.1
-0.3

> <PUBCHEM_SHAPE_SELFOVERLAP>
899.819

> <PUBCHEM_SHAPE_VOLUME>
242.7

> <PUBCHEM_COORDINATE_TYPE>
2
5
10

$$$$
