50216
  -OEChem-11232109123D

 29 29  0     0  0  0  0  0  0999 V2000
    0.7445   -0.0023   -0.4120 O   0  0  0  0  0  0  0  0  0  0  0  0
   -2.6459    2.0301    0.6189 O   0  0  0  0  0  0  0  0  0  0  0  0
   -0.3559    1.9734   -0.8424 O   0  0  0  0  0  0  0  0  0  0  0  0
    4.1674   -0.3184    0.2738 C   0  0  0  0  0  0  0  0  0  0  0  0
    1.9942    0.6135   -0.7013 C   0  0  0  0  0  0  0  0  0  0  0  0
   -1.5874    0.0375   -0.1939 C   0  0  0  0  0  0  0  0  0  0  0  0
    3.0938   -0.3880   -0.5359 C   0  0  0  0  0  0  0  0  0  0  0  0
   -2.6697    0.6924    0.3589 C   0  0  0  0  0  0  0  0  0  0  0  0
   -0.3532    0.7950   -0.5219 C   0  0  0  0  0  0  0  0  0  0  0  0
   -1.6076   -1.3184   -0.4573 C   0  0  0  0  0  0  0  0  0  0  0  0
    5.1768   -1.4361    0.2954 C   0  0  0  0  0  0  0  0  0  0  0  0
    4.4828    0.8149    1.2084 C   0  0  0  0  0  0  0  0  0  0  0  0
   -3.8194   -0.0376    0.6607 C   0  0  0  0  0  0  0  0  0  0  0  0
   -2.7573   -2.0482   -0.1553 C   0  0  0  0  0  0  0  0  0  0  0  0
   -3.8632   -1.4079    0.4038 C   0  0  0  0  0  0  0  0  0  0  0  0
    1.9918    0.9520   -1.7443 H   0  0  0  0  0  0  0  0  0  0  0  0
    2.1183    1.4890   -0.0598 H   0  0  0  0  0  0  0  0  0  0  0  0
    2.9887   -1.2695   -1.1678 H   0  0  0  0  0  0  0  0  0  0  0  0
   -0.7677   -1.8407   -0.9055 H   0  0  0  0  0  0  0  0  0  0  0  0
    6.1650   -1.0597    0.0108 H   0  0  0  0  0  0  0  0  0  0  0  0
    5.2444   -1.8662    1.3001 H   0  0  0  0  0  0  0  0  0  0  0  0
    4.9191   -2.2460   -0.3952 H   0  0  0  0  0  0  0  0  0  0  0  0
    5.4520    1.2547    0.9499 H   0  0  0  0  0  0  0  0  0  0  0  0
    3.7470    1.6205    1.1924 H   0  0  0  0  0  0  0  0  0  0  0  0
    4.5376    0.4464    2.2384 H   0  0  0  0  0  0  0  0  0  0  0  0
   -4.6884    0.4480    1.0966 H   0  0  0  0  0  0  0  0  0  0  0  0
   -2.7931   -3.1145   -0.3585 H   0  0  0  0  0  0  0  0  0  0  0  0
   -4.7585   -1.9762    0.6381 H   0  0  0  0  0  0  0  0  0  0  0  0
   -3.4990    2.2941    1.0043 H   0  0  0  0  0  0  0  0  0  0  0  0
  1  5  1  0  0  0  0
  1  9  1  0  0  0  0
  2  8  1  0  0  0  0
  2 29  1  0  0  0  0
  3  9  2  0  0  0  0
  4  7  2  0  0  0  0
  4 11  1  0  0  0  0
  4 12  1  0  0  0  0
  5  7  1  0  0  0  0
  5 16  1  0  0  0  0
  5 17  1  0  0  0  0
  6  8  1  0  0  0  0
  6  9  1  0  0  0  0
  6 10  2  0  0  0  0
  7 18  1  0  0  0  0
  8 13  2  0  0  0  0
 10 14  1  0  0  0  0
 10 19  1  0  0  0  0
 11 20  1  0  0  0  0
 11 21  1  0  0  0  0
 11 22  1  0  0  0  0
 12 23  1  0  0  0  0
 12 24  1  0  0  0  0
 12 25  1  0  0  0  0
 13 15  1  0  0  0  0
 13 26  1  0  0  0  0
 14 15  2  0  0  0  0
 14 27  1  0  0  0  0
 15 28  1  0  0  0  0
M  END
> <PUBCHEM_COMPOUND_CID>
50216

> <PUBCHEM_CONFORMER_RMSD>
0.6

> <PUBCHEM_CONFORMER_DIVERSEORDER>
1
92
21
113
52
93
159
139
48
4
130
123
64
140
154
37
115
151
162
42
138
88
160
78
40
164
80
145
76
8
98
36
29
141
12
85
101
73
149
20
69
30
119
127
132
82
137
6
97
35
32
79
14
105
131
7
87
150
134
91
135
100
39
103
13
146
118
90
156
129
86
17
96
158
110
66
136
107
16
50
46
3
144
161
104
57
59
120
26
38
27
74
116
68
62
81
117
41
28
133
84
58
65
10
72
67
31
77
34
83
99
142
157
89
55
106
147
2
5
114
44
102
108
125
121
75
51
24
19
63
45
148
153
126
9
95
23
22
49
60
15
152
112
111
47
61
109
155
128
18
94
53
11
43
54
143
33
25
71
122
163
56
70
124

> <PUBCHEM_MMFF94_PARTIAL_CHARGES>
21
1 -0.43
10 -0.15
11 0.14
12 0.14
13 -0.15
14 -0.15
15 -0.15
18 0.15
19 0.15
2 -0.53
26 0.15
27 0.15
28 0.15
29 0.45
3 -0.57
4 -0.28
5 0.42
6 0.09
7 -0.29
8 0.08
9 0.63

> <PUBCHEM_EFFECTIVE_ROTOR_COUNT>
4

> <PUBCHEM_PHARMACOPHORE_FEATURES>
4
1 2 donor
1 3 acceptor
3 4 11 12 hydrophobe
6 6 8 10 13 14 15 rings

> <PUBCHEM_HEAVY_ATOM_COUNT>
15

> <PUBCHEM_ATOM_DEF_STEREO_COUNT>
0

> <PUBCHEM_ATOM_UDEF_STEREO_COUNT>
0

> <PUBCHEM_BOND_DEF_STEREO_COUNT>
0

> <PUBCHEM_BOND_UDEF_STEREO_COUNT>
0

> <PUBCHEM_ISOTOPIC_ATOM_COUNT>
0

> <PUBCHEM_COMPONENT_COUNT>
1

> <PUBCHEM_CACTVS_TAUTO_COUNT>
4

> <PUBCHEM_CONFORMER_ID>
0000C42800000001

> <PUBCHEM_MMFF94_ENERGY>
33.5395

> <PUBCHEM_FEATURE_SELFOVERLAP>
20.297

> <PUBCHEM_SHAPE_FINGERPRINT>
11046707 91 18259703397813959166
11132069 177 18411140229381796375
11543360 7 11025807491830303026
12251169 10 18342459257185906028
13167823 11 18407760322644450130
13675066 3 18059858346467079974
14123260 362 12175624009596110666
1420 369 18113898273531071738
14420673 8 18051698737819146526
15342168 16 13614247017758039601
17804303 29 18343028812783132781
17870717 6 11602815744936771400
1813 80 17385733473805530166
19422 9 18260276269136546612
200 152 15864066572616021316
20281475 54 18334577953906900964
204376 136 15554449617156421438
20645477 70 13118274838226023800
20671657 53 15791726421411997532
21065199 12 18272929419316699458
21339142 126 18040713619644314701
21501925 9 18337107972864277004
21637258 2 16661213688760831187
21650355 55 18412827988626666409
22079108 93 14117518783228366295
22485316 2 18333729126371520252
22646028 28 18113900468259184326
22959321 60 17846491569709438936
22959321 94 18186796993948164058
23402539 116 18272927216193792029
23402655 69 8646774395913025834
23559900 14 18342737438075934768
24859131 72 18413952784426136439
2748010 2 17979100205618565725
2838139 119 13540530115357528147
3009799 131 18338780313387168207
351380 3 17676206858089046394
42 15 18411420605221483930
4214541 1 18412826850539116496
4990 188 10881392132795718088
5104073 3 18341057396866242712
559249 180 18041836203783643891
573450 72 18408321073062653194
5924683 9 17845925338079744015
90316 7 18260549978712770084

> <PUBCHEM_SHAPE_MULTIPOLES>
291.09
9.98
1.87
0.92
10.26
0.03
0.07
-3.27
3.21
-1.13
-0.02
0.35
0.17
-0.05

> <PUBCHEM_SHAPE_SELFOVERLAP>
597.825

> <PUBCHEM_SHAPE_VOLUME>
167.8

> <PUBCHEM_COORDINATE_TYPE>
2
5
10

$$$$
