5063293
  -OEChem-11232109253D

 25 24  0     0  0  0  0  0  0999 V2000
    1.9093    0.1125    0.0123 O   0  0  0  0  0  0  0  0  0  0  0  0
    5.2394    0.7616    0.0095 N   0  0  0  0  0  0  0  0  0  0  0  0
   -1.7980   -0.4974    0.0148 C   0  0  0  0  0  0  0  0  0  0  0  0
   -3.0345    0.4059    0.0106 C   0  0  0  0  0  0  0  0  0  0  0  0
   -0.4804    0.2762    0.0201 C   0  0  0  0  0  0  0  0  0  0  0  0
   -4.3531   -0.3684    0.0302 C   0  0  0  0  0  0  0  0  0  0  0  0
    0.7185   -0.6625   -0.0090 C   0  0  0  0  0  0  0  0  0  0  0  0
   -5.5479    0.5701   -0.0482 C   0  0  0  0  0  0  0  0  0  0  0  0
    3.0680   -0.7094   -0.0317 C   0  0  0  0  0  0  0  0  0  0  0  0
    4.2786    0.1114   -0.0086 C   0  0  0  0  0  0  0  0  0  0  0  0
   -1.8314   -1.1503   -0.8662 H   0  0  0  0  0  0  0  0  0  0  0  0
   -1.8359   -1.1515    0.8948 H   0  0  0  0  0  0  0  0  0  0  0  0
   -2.9954    1.0735    0.8803 H   0  0  0  0  0  0  0  0  0  0  0  0
   -3.0027    1.0456   -0.8802 H   0  0  0  0  0  0  0  0  0  0  0  0
   -0.4222    0.9178    0.9080 H   0  0  0  0  0  0  0  0  0  0  0  0
   -0.4345    0.9521   -0.8428 H   0  0  0  0  0  0  0  0  0  0  0  0
   -4.3872   -1.0645   -0.8157 H   0  0  0  0  0  0  0  0  0  0  0  0
   -4.4186   -0.9663    0.9464 H   0  0  0  0  0  0  0  0  0  0  0  0
    0.6979   -1.3257    0.8637 H   0  0  0  0  0  0  0  0  0  0  0  0
    0.6936   -1.2740   -0.9186 H   0  0  0  0  0  0  0  0  0  0  0  0
   -6.4806   -0.0023   -0.0304 H   0  0  0  0  0  0  0  0  0  0  0  0
   -5.5582    1.2632    0.7990 H   0  0  0  0  0  0  0  0  0  0  0  0
   -5.5268    1.1563   -0.9724 H   0  0  0  0  0  0  0  0  0  0  0  0
    3.0521   -1.3137   -0.9460 H   0  0  0  0  0  0  0  0  0  0  0  0
    3.0674   -1.3870    0.8297 H   0  0  0  0  0  0  0  0  0  0  0  0
  1  7  1  0  0  0  0
  1  9  1  0  0  0  0
  2 10  3  0  0  0  0
  3  4  1  0  0  0  0
  3  5  1  0  0  0  0
  3 11  1  0  0  0  0
  3 12  1  0  0  0  0
  4  6  1  0  0  0  0
  4 13  1  0  0  0  0
  4 14  1  0  0  0  0
  5  7  1  0  0  0  0
  5 15  1  0  0  0  0
  5 16  1  0  0  0  0
  6  8  1  0  0  0  0
  6 17  1  0  0  0  0
  6 18  1  0  0  0  0
  7 19  1  0  0  0  0
  7 20  1  0  0  0  0
  8 21  1  0  0  0  0
  8 22  1  0  0  0  0
  8 23  1  0  0  0  0
  9 10  1  0  0  0  0
  9 24  1  0  0  0  0
  9 25  1  0  0  0  0
M  END
> <PUBCHEM_COMPOUND_CID>
5063293

> <PUBCHEM_CONFORMER_RMSD>
0.6

> <PUBCHEM_CONFORMER_DIVERSEORDER>
1
144
96
143
125
9
61
5
167
50
100
78
112
152
58
74
3
81
121
106
154
124
19
11
122
163
123
105
18
128
8
111
161
45
104
126
14
39
32
135
165
75
77
168
127
21
153
13
91
27
164
150
88
139
158
35
101
98
83
29
54
119
116
93
82
146
86
73
147
6
142
15
134
40
155
120
85
166
129
17
117
87
53
132
137
22
4
68
47
7
63
23
145
20
136
140
133
48
2
36
159
138
92
95
148
84
64
90
102
66
115
33
114
49
42
97
31
130
67
99
10
156
72
12
28
162
57
55
107
65
30
79
25
41
44
89
141
37
46
149
16
43
24
131
76
157
103
69
70
118
34
62
94
60
59
51
80
52
109
110
38
71
26
113
108
56
151
160

> <PUBCHEM_MMFF94_PARTIAL_CHARGES>
5
1 -0.56
10 0.36
2 -0.56
7 0.28
9 0.48

> <PUBCHEM_EFFECTIVE_ROTOR_COUNT>
6

> <PUBCHEM_PHARMACOPHORE_FEATURES>
4
1 1 acceptor
1 2 acceptor
1 8 hydrophobe
4 3 4 5 6 hydrophobe

> <PUBCHEM_HEAVY_ATOM_COUNT>
10

> <PUBCHEM_ATOM_DEF_STEREO_COUNT>
0

> <PUBCHEM_ATOM_UDEF_STEREO_COUNT>
0

> <PUBCHEM_BOND_DEF_STEREO_COUNT>
0

> <PUBCHEM_BOND_UDEF_STEREO_COUNT>
0

> <PUBCHEM_ISOTOPIC_ATOM_COUNT>
0

> <PUBCHEM_COMPONENT_COUNT>
1

> <PUBCHEM_CACTVS_TAUTO_COUNT>
1

> <PUBCHEM_CONFORMER_ID>
004D427D00000001

> <PUBCHEM_MMFF94_ENERGY>
3.2787

> <PUBCHEM_FEATURE_SELFOVERLAP>
20.297

> <PUBCHEM_SHAPE_FINGERPRINT>
11062470 55 18408604759868425770
11401426 45 18113617889486174823
114248 4 18343584048922516955
14123238 8 18410855464444228125
14251718 22 18202281429028935135
15242439 84 13686295781485696447
15501527 16 18337955576724770745
17834072 33 17917706950282267557
17834076 25 18131632283299788802
18342897 14 18410011035377533857
187816 3 15410896262654011511
20605781 2 18412824707450701528
20645477 70 18059580118607542926
20719005 15 18410856555350103522
20767249 13 11963390747648396923
20767249 213 18335139812432343589
20828058 44 14779554499677627097
22485316 2 18334011687938390867
23402539 116 12468354674477861579
23402655 69 18131066000868464341
366044 4 18407477765156762795
42788 4 18410575080600200709
449060 50 18334576841035779942
59345606 91 18412261739900712081

> <PUBCHEM_SHAPE_MULTIPOLES>
194.94
12.6
0.85
0.6
0.3
0.03
0
-2.75
-0.1
-0.12
0
0.07
0.01
0.03

> <PUBCHEM_SHAPE_SELFOVERLAP>
347.315

> <PUBCHEM_SHAPE_VOLUME>
125

> <PUBCHEM_COORDINATE_TYPE>
2
5
10

$$$$
