50941
  -OEChem-11232109073D

 37 36  0     1  0  0  0  0  0999 V2000
   -3.3415   -0.4189    0.3080 O   0  0  0  0  0  0  0  0  0  0  0  0
   -0.0021    1.2440   -0.3688 C   0  0  1  0  0  0  0  0  0  0  0  0
    1.1917    1.5426    0.5680 C   0  0  0  0  0  0  0  0  0  0  0  0
   -1.1684    0.5854    0.3917 C   0  0  0  0  0  0  0  0  0  0  0  0
    1.7903    0.3270    1.2907 C   0  0  0  0  0  0  0  0  0  0  0  0
   -0.4391    2.5494   -1.0454 C   0  0  0  0  0  0  0  0  0  0  0  0
   -2.3458    0.1997   -0.4976 C   0  0  0  0  0  0  0  0  0  0  0  0
    2.2568   -0.7416    0.3419 C   0  0  0  0  0  0  0  0  0  0  0  0
    3.4964   -0.9469   -0.1426 C   0  0  0  0  0  0  0  0  0  0  0  0
   -4.4705   -0.8039   -0.4639 C   0  0  0  0  0  0  0  0  0  0  0  0
    3.8937   -2.0407   -1.0926 C   0  0  0  0  0  0  0  0  0  0  0  0
    4.6297   -0.0423    0.2649 C   0  0  0  0  0  0  0  0  0  0  0  0
   -5.4913   -1.4538    0.4456 C   0  0  0  0  0  0  0  0  0  0  0  0
    0.3319    0.5613   -1.1599 H   0  0  0  0  0  0  0  0  0  0  0  0
    0.8794    2.2706    1.3282 H   0  0  0  0  0  0  0  0  0  0  0  0
    1.9867    2.0289   -0.0131 H   0  0  0  0  0  0  0  0  0  0  0  0
   -1.5217    1.2499    1.1910 H   0  0  0  0  0  0  0  0  0  0  0  0
   -0.8315   -0.3263    0.8975 H   0  0  0  0  0  0  0  0  0  0  0  0
    2.6033    0.6632    1.9429 H   0  0  0  0  0  0  0  0  0  0  0  0
    1.0573   -0.1115    1.9771 H   0  0  0  0  0  0  0  0  0  0  0  0
   -0.8789    3.2441   -0.3220 H   0  0  0  0  0  0  0  0  0  0  0  0
    0.4155    3.0480   -1.5160 H   0  0  0  0  0  0  0  0  0  0  0  0
   -1.1733    2.3651   -1.8352 H   0  0  0  0  0  0  0  0  0  0  0  0
   -2.0156   -0.4974   -1.2764 H   0  0  0  0  0  0  0  0  0  0  0  0
   -2.7803    1.0855   -0.9716 H   0  0  0  0  0  0  0  0  0  0  0  0
    1.4752   -1.4248    0.0116 H   0  0  0  0  0  0  0  0  0  0  0  0
   -4.9119    0.0779   -0.9418 H   0  0  0  0  0  0  0  0  0  0  0  0
   -4.1641   -1.5135   -1.2406 H   0  0  0  0  0  0  0  0  0  0  0  0
    3.0430   -2.6824   -1.3442 H   0  0  0  0  0  0  0  0  0  0  0  0
    4.6684   -2.6718   -0.6456 H   0  0  0  0  0  0  0  0  0  0  0  0
    4.2802   -1.6169   -2.0249 H   0  0  0  0  0  0  0  0  0  0  0  0
    5.2064    0.2527   -0.6192 H   0  0  0  0  0  0  0  0  0  0  0  0
    4.3161    0.8877    0.7438 H   0  0  0  0  0  0  0  0  0  0  0  0
    5.3030   -0.5704    0.9480 H   0  0  0  0  0  0  0  0  0  0  0  0
   -6.3760   -1.7635   -0.1177 H   0  0  0  0  0  0  0  0  0  0  0  0
   -5.0629   -2.3314    0.9411 H   0  0  0  0  0  0  0  0  0  0  0  0
   -5.8000   -0.7614    1.2358 H   0  0  0  0  0  0  0  0  0  0  0  0
  1  7  1  0  0  0  0
  1 10  1  0  0  0  0
  2  3  1  0  0  0  0
  2  4  1  0  0  0  0
  2  6  1  0  0  0  0
  2 14  1  0  0  0  0
  3  5  1  0  0  0  0
  3 15  1  0  0  0  0
  3 16  1  0  0  0  0
  4  7  1  0  0  0  0
  4 17  1  0  0  0  0
  4 18  1  0  0  0  0
  5  8  1  0  0  0  0
  5 19  1  0  0  0  0
  5 20  1  0  0  0  0
  6 21  1  0  0  0  0
  6 22  1  0  0  0  0
  6 23  1  0  0  0  0
  7 24  1  0  0  0  0
  7 25  1  0  0  0  0
  8  9  2  0  0  0  0
  8 26  1  0  0  0  0
  9 11  1  0  0  0  0
  9 12  1  0  0  0  0
 10 13  1  0  0  0  0
 10 27  1  0  0  0  0
 10 28  1  0  0  0  0
 11 29  1  0  0  0  0
 11 30  1  0  0  0  0
 11 31  1  0  0  0  0
 12 32  1  0  0  0  0
 12 33  1  0  0  0  0
 12 34  1  0  0  0  0
 13 35  1  0  0  0  0
 13 36  1  0  0  0  0
 13 37  1  0  0  0  0
M  END
> <PUBCHEM_COMPOUND_CID>
50941

> <PUBCHEM_CONFORMER_RMSD>
0.8

> <PUBCHEM_CONFORMER_DIVERSEORDER>
2
225
47
199
190
88
132
163
127
205
71
43
170
34
102
214
63
45
8
79
200
184
93
215
23
222
116
30
5
64
210
196
33
154
211
217
181
31
125
134
232
187
110
218
40
117
138
202
98
137
168
228
22
111
148
122
178
114
169
223
177
219
123
179
130
42
94
90
55
112
234
226
221
133
107
146
189
230
145
39
157
175
49
208
192
201
174
3
38
173
198
119
204
149
73
233
82
76
86
95
227
136
115
58
212
143
35
207
166
21
96
80
194
186
37
72
195
209
81
12
103
51
92
17
104
203
14
147
162
129
32
164
156
84
62
54
197
66
89
19
126
78
25
44
153
10
160
172
1
182
150
99
155
229
36
183
231
97
113
216
142
124
131
26
152
118
61
13
50
48
65
144
191
77
29
141
140
60
70
83
52
106
120
7
161
139
151
165
6
180
158
57
67
4
128
185
41
75
224
27
206
100
85
46
135
91
59
9
56
121
15
69
213
171
220
53
74
176
87
101
68
109
20
16
11
105
193
18
167
159
188
108
24
28

> <PUBCHEM_MMFF94_PARTIAL_CHARGES>
9
1 -0.56
10 0.28
11 0.14
12 0.14
26 0.15
5 0.14
7 0.28
8 -0.29
9 -0.28

> <PUBCHEM_EFFECTIVE_ROTOR_COUNT>
7

> <PUBCHEM_PHARMACOPHORE_FEATURES>
4
1 1 acceptor
1 6 hydrophobe
3 9 11 12 hydrophobe
5 2 3 4 5 8 hydrophobe

> <PUBCHEM_HEAVY_ATOM_COUNT>
13

> <PUBCHEM_ATOM_DEF_STEREO_COUNT>
0

> <PUBCHEM_ATOM_UDEF_STEREO_COUNT>
1

> <PUBCHEM_BOND_DEF_STEREO_COUNT>
0

> <PUBCHEM_BOND_UDEF_STEREO_COUNT>
0

> <PUBCHEM_ISOTOPIC_ATOM_COUNT>
0

> <PUBCHEM_COMPONENT_COUNT>
1

> <PUBCHEM_CACTVS_TAUTO_COUNT>
1

> <PUBCHEM_CONFORMER_ID>
0000C6FD00000002

> <PUBCHEM_MMFF94_ENERGY>
14.2739

> <PUBCHEM_FEATURE_SELFOVERLAP>
20.302

> <PUBCHEM_SHAPE_FINGERPRINT>
11543360 7 13912321292007536969
12006461 19 18272932725998639395
12596602 18 15554443045735788418
12841375 25 18261108599518173565
13464513 79 18411416245603059122
13533116 47 18130507561010798011
14123255 352 8862933983396938758
14123255 52 9223235139520850785
14178000 29 18408324410489658061
14251710 61 18412826889193926011
14251731 5 18128822936871196486
14251764 30 17631746984375548270
14252887 29 18411414050705790737
15061688 2 8214133045555762566
15342816 4 18186799149942644914
17834072 8 18261944190449404309
192875 21 14923946726419289230
193927 3 18409738378332743939
19782 4 9511458914144467167
20281475 54 18339362950895687016
20374829 77 18260541212942390427
20388580 30 18113624507566795124
20645477 70 18189048866918529663
20671657 53 18113333111315999933
20724930 31 18411416219912084338
20871998 22 18411696582307921708
20871999 31 17821722802366552885
212847 35 9727635016626757986
212916 134 10663813044744026158
21524375 3 9079119972471730864
21713013 43 18196096543242414502
23402539 116 17822003165110114448
23402655 69 12396293755702580443
23500284 214 9439109970810000732
23557571 272 18260823774730884964
2871803 45 18334853875190581050
2916195 48 8358248229342315895
328317 168 7853568002826076539
42 15 17846501456750527979
4416823 128 18411417306396502225
4463277 69 18272366473331198021
449060 23 18409167679730708945
5352402 22 17632302233157097846
7364860 26 18192712469231925261
83771 10 18272367551394512168
94968 8 18409446990286683906

> <PUBCHEM_SHAPE_MULTIPOLES>
261.66
10.33
2.14
1.04
8.02
0.67
0.01
-8.36
0.04
-0.27
0.74
-0.39
0.09
1.1

> <PUBCHEM_SHAPE_SELFOVERLAP>
475.593

> <PUBCHEM_SHAPE_VOLUME>
168.5

> <PUBCHEM_COORDINATE_TYPE>
2
5
10

$$$$
