51330
  -OEChem-11232109013D

 36 35  0     1  0  0  0  0  0999 V2000
    2.3575   -0.2841    0.2336 O   0  0  0  0  0  0  0  0  0  0  0  0
    1.0106    0.2627   -1.5568 O   0  0  0  0  0  0  0  0  0  0  0  0
   -3.0599    0.7121    0.1564 C   0  0  0  0  0  0  0  0  0  0  0  0
   -1.6051    0.2253    0.4230 C   0  0  0  0  0  0  0  0  0  0  0  0
   -1.1838   -1.1269   -0.2093 C   0  0  1  0  0  0  0  0  0  0  0  0
   -3.2172    2.1089    0.7931 C   0  0  0  0  0  0  0  0  0  0  0  0
   -3.3251    0.8436   -1.3541 C   0  0  0  0  0  0  0  0  0  0  0  0
   -4.1137   -0.2186    0.7712 C   0  0  0  0  0  0  0  0  0  0  0  0
    0.3084   -1.4144    0.0600 C   0  0  0  0  0  0  0  0  0  0  0  0
   -2.0046   -2.2879    0.3689 C   0  0  0  0  0  0  0  0  0  0  0  0
    1.2314   -0.3719   -0.5346 C   0  0  0  0  0  0  0  0  0  0  0  0
    3.3468    0.6418   -0.2270 C   0  0  0  0  0  0  0  0  0  0  0  0
    4.5034    0.6168    0.7161 C   0  0  0  0  0  0  0  0  0  0  0  0
    5.7512    0.2927    0.3596 C   0  0  0  0  0  0  0  0  0  0  0  0
   -1.4427    0.1723    1.5087 H   0  0  0  0  0  0  0  0  0  0  0  0
   -0.9264    1.0088    0.0628 H   0  0  0  0  0  0  0  0  0  0  0  0
   -1.3294   -1.0928   -1.2948 H   0  0  0  0  0  0  0  0  0  0  0  0
   -4.2183    2.5193    0.6178 H   0  0  0  0  0  0  0  0  0  0  0  0
   -3.0594    2.0668    1.8768 H   0  0  0  0  0  0  0  0  0  0  0  0
   -2.4934    2.8188    0.3768 H   0  0  0  0  0  0  0  0  0  0  0  0
   -2.5727    1.4798   -1.8333 H   0  0  0  0  0  0  0  0  0  0  0  0
   -4.3078    1.2909   -1.5431 H   0  0  0  0  0  0  0  0  0  0  0  0
   -3.3124   -0.1293   -1.8560 H   0  0  0  0  0  0  0  0  0  0  0  0
   -4.3589   -1.0713    0.1369 H   0  0  0  0  0  0  0  0  0  0  0  0
   -3.8209   -0.5658    1.7670 H   0  0  0  0  0  0  0  0  0  0  0  0
   -5.0648    0.3152    0.8969 H   0  0  0  0  0  0  0  0  0  0  0  0
    0.5998   -2.3808   -0.3675 H   0  0  0  0  0  0  0  0  0  0  0  0
    0.4752   -1.4592    1.1436 H   0  0  0  0  0  0  0  0  0  0  0  0
   -2.9473   -2.4176   -0.1631 H   0  0  0  0  0  0  0  0  0  0  0  0
   -1.4756   -3.2387    0.2293 H   0  0  0  0  0  0  0  0  0  0  0  0
   -2.1828   -2.1801    1.4427 H   0  0  0  0  0  0  0  0  0  0  0  0
    3.6544    0.3691   -1.2435 H   0  0  0  0  0  0  0  0  0  0  0  0
    2.9196    1.6512   -0.2420 H   0  0  0  0  0  0  0  0  0  0  0  0
    4.3098    0.8836    1.7518 H   0  0  0  0  0  0  0  0  0  0  0  0
    6.5500    0.2953    1.0932 H   0  0  0  0  0  0  0  0  0  0  0  0
    5.9978    0.0208   -0.6607 H   0  0  0  0  0  0  0  0  0  0  0  0
  1 11  1  0  0  0  0
  1 12  1  0  0  0  0
  2 11  2  0  0  0  0
  3  4  1  0  0  0  0
  3  6  1  0  0  0  0
  3  7  1  0  0  0  0
  3  8  1  0  0  0  0
  4  5  1  0  0  0  0
  4 15  1  0  0  0  0
  4 16  1  0  0  0  0
  5  9  1  0  0  0  0
  5 10  1  0  0  0  0
  5 17  1  0  0  0  0
  6 18  1  0  0  0  0
  6 19  1  0  0  0  0
  6 20  1  0  0  0  0
  7 21  1  0  0  0  0
  7 22  1  0  0  0  0
  7 23  1  0  0  0  0
  8 24  1  0  0  0  0
  8 25  1  0  0  0  0
  8 26  1  0  0  0  0
  9 11  1  0  0  0  0
  9 27  1  0  0  0  0
  9 28  1  0  0  0  0
 10 29  1  0  0  0  0
 10 30  1  0  0  0  0
 10 31  1  0  0  0  0
 12 13  1  0  0  0  0
 12 32  1  0  0  0  0
 12 33  1  0  0  0  0
 13 14  2  0  0  0  0
 13 34  1  0  0  0  0
 14 35  1  0  0  0  0
 14 36  1  0  0  0  0
M  END
> <PUBCHEM_COMPOUND_CID>
51330

> <PUBCHEM_CONFORMER_RMSD>
0.8

> <PUBCHEM_CONFORMER_DIVERSEORDER>
31
21
83
37
81
22
60
5
20
78
93
54
47
2
52
6
16
57
55
71
70
92
56
50
72
34
46
51
69
15
94
33
89
24
28
62
53
42
44
19
27
90
12
79
95
85
39
73
9
23
96
35
13
36
1
26
61
91
63
38
82
59
30
40
80
18
64
67
65
75
88
87
43
48
3
86
76
4
49
77
29
32
84
74
25
7
41
17
68
45
58
11
8
10
66
14

> <PUBCHEM_MMFF94_PARTIAL_CHARGES>
10
1 -0.43
11 0.66
12 0.42
13 -0.29
14 -0.3
2 -0.57
34 0.15
35 0.15
36 0.15
9 0.06

> <PUBCHEM_EFFECTIVE_ROTOR_COUNT>
7

> <PUBCHEM_PHARMACOPHORE_FEATURES>
5
1 10 hydrophobe
1 14 hydrophobe
1 2 acceptor
4 3 4 5 9 hydrophobe
4 3 6 7 8 hydrophobe

> <PUBCHEM_HEAVY_ATOM_COUNT>
14

> <PUBCHEM_ATOM_DEF_STEREO_COUNT>
0

> <PUBCHEM_ATOM_UDEF_STEREO_COUNT>
1

> <PUBCHEM_BOND_DEF_STEREO_COUNT>
0

> <PUBCHEM_BOND_UDEF_STEREO_COUNT>
0

> <PUBCHEM_ISOTOPIC_ATOM_COUNT>
0

> <PUBCHEM_COMPONENT_COUNT>
1

> <PUBCHEM_CACTVS_TAUTO_COUNT>
1

> <PUBCHEM_CONFORMER_ID>
0000C8820000001F

> <PUBCHEM_MMFF94_ENERGY>
29.3069

> <PUBCHEM_FEATURE_SELFOVERLAP>
25.588

> <PUBCHEM_SHAPE_FINGERPRINT>
12006461 19 11891346351865972409
12119455 92 17346877849792780580
12251169 10 18113619010219496502
124424 183 18131067160620397626
12500047 106 18411694409413172682
12596602 18 17676205805721968808
13296909 8 18335979882292076310
13675066 3 17530683195538550026
14123255 352 18410851040823527284
14252887 29 15936687091354414984
14573314 32 18272379655092329134
14897335 6 18410854347790076710
15209294 21 18333729113565778738
15279308 16 17989214741108790415
1741750 31 18341337716628748787
17834072 8 17917720089478581326
1813 80 16153710891157845030
18186145 218 18267595606463146575
20300324 65 17418086624727227681
20374829 77 8718826466158852520
20432913 95 15285354020662495312
20645477 56 18343025514227286834
20871999 31 10015594886568107866
22485316 2 8358258129262798056
2306618 200 18040427815830835749
23402539 116 18342450469972800055
23402655 69 16415202226109757520
23500284 214 18272095980522605115
23557571 272 17916875740998485183
23559900 14 18272094868875453894
3286 77 14490771082009453973
351380 180 17846775217913474472
3545911 37 18413111667084922362
449060 50 18409449189531342486
53428517 29 18261108595491965188
83771 10 10809346637374746790

> <PUBCHEM_SHAPE_MULTIPOLES>
276.37
10.02
1.75
1.06
13.07
0.38
0.3
-3.86
-2.1
-1.88
-0.33
-0.44
-0.22
0.16

> <PUBCHEM_SHAPE_SELFOVERLAP>
518.547

> <PUBCHEM_SHAPE_VOLUME>
173.6

> <PUBCHEM_COORDINATE_TYPE>
2
5
10

$$$$
