517637
  -OEChem-11232109193D

 37 38  0     1  0  0  0  0  0999 V2000
    1.4632   -1.4202    0.3677 O   0  0  0  0  0  0  0  0  0  0  0  0
   -1.3128   -1.3425    0.0692 O   0  0  0  0  0  0  0  0  0  0  0  0
    3.5104   -2.1082   -0.4291 O   0  0  0  0  0  0  0  0  0  0  0  0
   -3.1875   -2.1011    1.1687 O   0  0  0  0  0  0  0  0  0  0  0  0
    0.7639   -2.5017   -0.2465 C   0  0  1  0  0  0  0  0  0  0  0  0
   -0.6373   -2.5645    0.3478 C   0  0  0  0  0  0  0  0  0  0  0  0
    0.7213   -2.2697   -1.7492 C   0  0  0  0  0  0  0  0  0  0  0  0
    2.7478   -1.2381   -0.0383 C   0  0  0  0  0  0  0  0  0  0  0  0
    3.1261    0.1946    0.0548 C   0  0  0  0  0  0  0  0  0  0  0  0
   -3.1771    0.0699    0.1830 C   0  0  0  0  0  0  0  0  0  0  0  0
   -2.5860   -1.2447    0.5393 C   0  0  0  0  0  0  0  0  0  0  0  0
    4.4429    0.5219    0.3057 C   0  0  0  0  0  0  0  0  0  0  0  0
    2.1490    1.1544   -0.1122 C   0  0  0  0  0  0  0  0  0  0  0  0
   -4.5401    0.1572   -0.0135 C   0  0  0  0  0  0  0  0  0  0  0  0
   -2.3449    1.1635    0.0592 C   0  0  0  0  0  0  0  0  0  0  0  0
    4.7982    1.8679    0.3935 C   0  0  0  0  0  0  0  0  0  0  0  0
    2.5042    2.5004   -0.0245 C   0  0  0  0  0  0  0  0  0  0  0  0
   -5.0952    1.3923   -0.3486 C   0  0  0  0  0  0  0  0  0  0  0  0
   -2.8999    2.3985   -0.2757 C   0  0  0  0  0  0  0  0  0  0  0  0
    3.8288    2.8572    0.2284 C   0  0  0  0  0  0  0  0  0  0  0  0
   -4.2751    2.5128   -0.4796 C   0  0  0  0  0  0  0  0  0  0  0  0
    1.2795   -3.4429   -0.0202 H   0  0  0  0  0  0  0  0  0  0  0  0
   -1.1968   -3.4047   -0.0794 H   0  0  0  0  0  0  0  0  0  0  0  0
   -0.5691   -2.6862    1.4354 H   0  0  0  0  0  0  0  0  0  0  0  0
    1.7092   -2.3757   -2.2079 H   0  0  0  0  0  0  0  0  0  0  0  0
    0.0610   -2.9938   -2.2380 H   0  0  0  0  0  0  0  0  0  0  0  0
    0.3705   -1.2603   -1.9919 H   0  0  0  0  0  0  0  0  0  0  0  0
    5.2058   -0.2393    0.4393 H   0  0  0  0  0  0  0  0  0  0  0  0
    1.1154    0.9035   -0.3269 H   0  0  0  0  0  0  0  0  0  0  0  0
   -5.1883   -0.7087    0.0823 H   0  0  0  0  0  0  0  0  0  0  0  0
   -1.2747    1.1045    0.2289 H   0  0  0  0  0  0  0  0  0  0  0  0
    5.8294    2.1459    0.5910 H   0  0  0  0  0  0  0  0  0  0  0  0
    1.7502    3.2709   -0.1569 H   0  0  0  0  0  0  0  0  0  0  0  0
   -6.1658    1.4814   -0.5080 H   0  0  0  0  0  0  0  0  0  0  0  0
   -2.2619    3.2721   -0.3741 H   0  0  0  0  0  0  0  0  0  0  0  0
    4.1054    3.9053    0.2960 H   0  0  0  0  0  0  0  0  0  0  0  0
   -4.7073    3.4747   -0.7397 H   0  0  0  0  0  0  0  0  0  0  0  0
  1  5  1  0  0  0  0
  1  8  1  0  0  0  0
  2  6  1  0  0  0  0
  2 11  1  0  0  0  0
  3  8  2  0  0  0  0
  4 11  2  0  0  0  0
  5  6  1  0  0  0  0
  5  7  1  0  0  0  0
  5 22  1  0  0  0  0
  6 23  1  0  0  0  0
  6 24  1  0  0  0  0
  7 25  1  0  0  0  0
  7 26  1  0  0  0  0
  7 27  1  0  0  0  0
  8  9  1  0  0  0  0
  9 12  2  0  0  0  0
  9 13  1  0  0  0  0
 10 11  1  0  0  0  0
 10 14  2  0  0  0  0
 10 15  1  0  0  0  0
 12 16  1  0  0  0  0
 12 28  1  0  0  0  0
 13 17  2  0  0  0  0
 13 29  1  0  0  0  0
 14 18  1  0  0  0  0
 14 30  1  0  0  0  0
 15 19  2  0  0  0  0
 15 31  1  0  0  0  0
 16 20  2  0  0  0  0
 16 32  1  0  0  0  0
 17 20  1  0  0  0  0
 17 33  1  0  0  0  0
 18 21  2  0  0  0  0
 18 34  1  0  0  0  0
 19 21  1  0  0  0  0
 19 35  1  0  0  0  0
 20 36  1  0  0  0  0
 21 37  1  0  0  0  0
M  END
> <PUBCHEM_COMPOUND_CID>
517637

> <PUBCHEM_CONFORMER_RMSD>
0.8

> <PUBCHEM_CONFORMER_DIVERSEORDER>
2
120
39
10
373
250
360
27
244
157
72
17
253
80
91
249
341
294
318
168
350
297
52
13
295
304
4
178
26
273
308
289
183
261
100
11
182
3
62
343
352
363
144
50
55
281
364
275
379
301
366
79
185
83
138
177
309
355
161
262
258
143
164
9
99
326
227
193
199
172
368
229
216
206
356
59
211
380
330
136
359
22
327
20
247
61
312
215
201
323
171
286
140
25
18
184
88
64
37
104
317
98
186
115
372
53
319
214
270
141
169
16
6
293
299
38
272
208
225
187
337
246
32
243
209
103
102
19
263
151
232
198
291
60
93
303
231
147
290
95
237
73
158
122
245
329
114
264
362
56
221
347
220
47
284
260
90
152
128
213
81
256
70
334
210
202
97
292
192
271
238
68
255
148
117
203
84
153
251
204
342
189
188
154
266
137
219
226
34
252
274
118
101
332
127
233
268
307
48
170
325
86
311
195
132
43
40
176
173
254
257
126
142
374
370
191
14
267
163
242
129
124
335
190
205
49
31
376
65
45
279
212
239
111
29
324
217
150
76
112
265
21
287
12
165
375
358
285
69
1
321
41
149
108
361
125
371
280
365
269
5
8
166
351
331
7
236
353
320
197
113
230
82
15
66
77
63
67
349
121
51
71
28
296
314
36
235
30
288
42
222
44
345
133
87
338
224
155
305
234
74
276
24
241
35
134
89
282
223
110
33
180
135
123
46
92
316
78
339
218
181
160
336
369
156
57
357
94
315
354
259
228
174
23
119
106
130
348
344
200
346
75
313
139
146
196
207
116
248
277
58
283
131
194
306
96
179
162
322
378
298
302
107
109
333
278
145
105
159
54
300
367
310
328
340
240
377
175
167
85

> <PUBCHEM_MMFF94_PARTIAL_CHARGES>
30
1 -0.43
10 0.09
11 0.63
12 -0.15
13 -0.15
14 -0.15
15 -0.15
16 -0.15
17 -0.15
18 -0.15
19 -0.15
2 -0.43
20 -0.15
21 -0.15
28 0.15
29 0.15
3 -0.57
30 0.15
31 0.15
32 0.15
33 0.15
34 0.15
35 0.15
36 0.15
37 0.15
4 -0.57
5 0.28
6 0.28
8 0.63
9 0.09

> <PUBCHEM_EFFECTIVE_ROTOR_COUNT>
7

> <PUBCHEM_PHARMACOPHORE_FEATURES>
4
1 3 acceptor
1 4 acceptor
6 10 14 15 18 19 21 rings
6 9 12 13 16 17 20 rings

> <PUBCHEM_HEAVY_ATOM_COUNT>
21

> <PUBCHEM_ATOM_DEF_STEREO_COUNT>
0

> <PUBCHEM_ATOM_UDEF_STEREO_COUNT>
1

> <PUBCHEM_BOND_DEF_STEREO_COUNT>
0

> <PUBCHEM_BOND_UDEF_STEREO_COUNT>
0

> <PUBCHEM_ISOTOPIC_ATOM_COUNT>
0

> <PUBCHEM_COMPONENT_COUNT>
1

> <PUBCHEM_CACTVS_TAUTO_COUNT>
1

> <PUBCHEM_CONFORMER_ID>
0007E60500000002

> <PUBCHEM_MMFF94_ENERGY>
61.3302

> <PUBCHEM_FEATURE_SELFOVERLAP>
20.297

> <PUBCHEM_SHAPE_FINGERPRINT>
10616163 171 18337111271288650185
10670039 82 18117854411031216188
10871710 139 17547856712080843278
11221954 11 18410299103086897779
11370993 70 18410289220288242809
12107183 9 18262221250089173274
12422481 6 18266154241989148112
12633257 1 18115578232455306282
12769317 202 18341321193873821233
12925494 130 18121218672089887273
12978246 48 18264492956253796728
13402501 40 18336544919647349029
138480 1 17834110840593844602
14251764 38 18412826850291482401
14251764 75 18341624727993131145
14466204 15 18119522146726816034
14468879 13 18334017224208966041
14790565 3 17903079177359319740
15196674 1 18410011018234438513
17834072 32 18411700984649068921
20398071 114 18118114776059264501
20621476 13 18340205189634905996
20715895 44 18265607685303948529
21033648 29 16951118466159723807
21197605 99 18339926034267680423
21279426 13 18340780273719894758
21475661 188 18408601431316289758
21860390 5 18128257774845613646
21864079 5 18411132563013041326
22749437 52 18410294709261689417
23227448 37 18412542120098677423
23559900 14 18340485543620072674
2838139 119 18411692201551711950
3187 122 17750242563902887705
3680242 22 18191021196951519704
474 4 18340201895563554675
5081480 168 17413909498459263958
5104073 3 18334017164221907323
5939293 188 18266735775633114090
6328613 192 18260835942958751772
7808743 9 18194400228660762320
9709674 26 18410578366382070527
9862522 239 18269543013586738032
9981440 41 18334009510601157491

> <PUBCHEM_SHAPE_MULTIPOLES>
408.69
10.75
3.87
0.88
2.28
0.1
-0.19
-7.7
0.5
-0.87
-0.32
0.12
0.45
1.38

> <PUBCHEM_SHAPE_SELFOVERLAP>
869.95

> <PUBCHEM_SHAPE_VOLUME>
226.6

> <PUBCHEM_COORDINATE_TYPE>
2
5
10

$$$$
