518700
  -OEChem-11232108483D

 12 12  0     0  0  0  0  0  0999 V2000
    2.7388   -0.0001    0.0002 S   0  5  0  0  0  0  0  0  0  0  0  0
    0.9384   -0.0001   -0.0001 C   0  0  0  0  0  0  0  0  0  0  0  0
    0.2408   -1.2080    0.0000 C   0  0  0  0  0  0  0  0  0  0  0  0
    0.2411    1.2079   -0.0001 C   0  0  0  0  0  0  0  0  0  0  0  0
   -1.1541   -1.2079    0.0000 C   0  0  0  0  0  0  0  0  0  0  0  0
   -1.1538    1.2081    0.0001 C   0  0  0  0  0  0  0  0  0  0  0  0
   -1.8513    0.0001    0.0001 C   0  0  0  0  0  0  0  0  0  0  0  0
    0.7594   -2.1643   -0.0001 H   0  0  0  0  0  0  0  0  0  0  0  0
    0.7598    2.1641   -0.0002 H   0  0  0  0  0  0  0  0  0  0  0  0
   -1.6975   -2.1483    0.0000 H   0  0  0  0  0  0  0  0  0  0  0  0
   -1.6971    2.1485    0.0001 H   0  0  0  0  0  0  0  0  0  0  0  0
   -2.9374    0.0002    0.0002 H   0  0  0  0  0  0  0  0  0  0  0  0
  1  2  1  0  0  0  0
  2  3  2  0  0  0  0
  2  4  1  0  0  0  0
  3  5  1  0  0  0  0
  3  8  1  0  0  0  0
  4  6  2  0  0  0  0
  4  9  1  0  0  0  0
  5  7  2  0  0  0  0
  5 10  1  0  0  0  0
  6  7  1  0  0  0  0
  6 11  1  0  0  0  0
  7 12  1  0  0  0  0
M  CHG  1   1  -1
M  END
> <PUBCHEM_COMPOUND_CID>
518700

> <PUBCHEM_CONFORMER_RMSD>
0.4

> <PUBCHEM_CONFORMER_DIVERSEORDER>
1

> <PUBCHEM_MMFF94_PARTIAL_CHARGES>
12
1 -0.95
10 0.15
11 0.15
12 0.15
2 -0.05
3 -0.15
4 -0.15
5 -0.15
6 -0.15
7 -0.15
8 0.15
9 0.15

> <PUBCHEM_EFFECTIVE_ROTOR_COUNT>
0

> <PUBCHEM_PHARMACOPHORE_FEATURES>
1
6 2 3 4 5 6 7 rings

> <PUBCHEM_HEAVY_ATOM_COUNT>
7

> <PUBCHEM_ATOM_DEF_STEREO_COUNT>
0

> <PUBCHEM_ATOM_UDEF_STEREO_COUNT>
0

> <PUBCHEM_BOND_DEF_STEREO_COUNT>
0

> <PUBCHEM_BOND_UDEF_STEREO_COUNT>
0

> <PUBCHEM_ISOTOPIC_ATOM_COUNT>
0

> <PUBCHEM_COMPONENT_COUNT>
1

> <PUBCHEM_CACTVS_TAUTO_COUNT>
1

> <PUBCHEM_CONFORMER_ID>
0007EA2C00000001

> <PUBCHEM_MMFF94_ENERGY>
15.6898

> <PUBCHEM_FEATURE_SELFOVERLAP>
5.074

> <PUBCHEM_SHAPE_FINGERPRINT>
16714656 1 18410858758837111990
18185500 45 18335418010391185874
21040471 1 18266459797824217152
23552423 10 18260270750478318830
29004967 10 18336836363184767682
369184 2 18411975862856654298

> <PUBCHEM_SHAPE_MULTIPOLES>
147.91
2.85
1.44
0.63
1.83
0
0
0
0
-0.4
0
0.03
0
0

> <PUBCHEM_SHAPE_SELFOVERLAP>
292.321

> <PUBCHEM_SHAPE_VOLUME>
89.8

> <PUBCHEM_COORDINATE_TYPE>
2
5
10

$$$$
