518810
  -OEChem-11232108433D

 27 26  0     1  0  0  0  0  0999 V2000
    2.9396    2.1962   -0.2202 S   0  0  0  0  0  0  0  0  0  0  0  0
   -1.9191    0.4342   -0.4053 O   0  0  0  0  0  0  0  0  0  0  0  0
   -3.0792   -0.9384    1.0461 O   0  0  0  0  0  0  0  0  0  0  0  0
    1.6950    1.0807    0.5300 C   0  0  2  0  0  0  0  0  0  0  0  0
    2.2528   -0.3475    0.6900 C   0  0  0  0  0  0  0  0  0  0  0  0
    0.3726    1.1189   -0.2512 C   0  0  0  0  0  0  0  0  0  0  0  0
    2.5834   -1.0920   -0.6087 C   0  0  0  0  0  0  0  0  0  0  0  0
   -0.7473    0.3033    0.3905 C   0  0  0  0  0  0  0  0  0  0  0  0
    3.0925   -2.4977   -0.3217 C   0  0  0  0  0  0  0  0  0  0  0  0
   -3.0194   -0.2435    0.0409 C   0  0  0  0  0  0  0  0  0  0  0  0
   -4.1709   -0.0141   -0.8905 C   0  0  0  0  0  0  0  0  0  0  0  0
    1.5108    1.4775    1.5357 H   0  0  0  0  0  0  0  0  0  0  0  0
    3.1624   -0.2995    1.3050 H   0  0  0  0  0  0  0  0  0  0  0  0
    1.5487   -0.9481    1.2786 H   0  0  0  0  0  0  0  0  0  0  0  0
    0.0251    2.1582   -0.3337 H   0  0  0  0  0  0  0  0  0  0  0  0
    0.5124    0.7849   -1.2872 H   0  0  0  0  0  0  0  0  0  0  0  0
    3.3485   -0.5585   -1.1812 H   0  0  0  0  0  0  0  0  0  0  0  0
    1.6937   -1.1698   -1.2419 H   0  0  0  0  0  0  0  0  0  0  0  0
   -0.9473    0.6718    1.4033 H   0  0  0  0  0  0  0  0  0  0  0  0
   -0.4781   -0.7567    0.4362 H   0  0  0  0  0  0  0  0  0  0  0  0
    3.3230   -3.0155   -1.2581 H   0  0  0  0  0  0  0  0  0  0  0  0
    2.3409   -3.0855    0.2148 H   0  0  0  0  0  0  0  0  0  0  0  0
    4.0041   -2.4688    0.2837 H   0  0  0  0  0  0  0  0  0  0  0  0
    2.9016    1.6749   -1.4549 H   0  0  0  0  0  0  0  0  0  0  0  0
   -3.9197   -0.3831   -1.8880 H   0  0  0  0  0  0  0  0  0  0  0  0
   -4.4142    1.0509   -0.9234 H   0  0  0  0  0  0  0  0  0  0  0  0
   -5.0460   -0.5604   -0.5270 H   0  0  0  0  0  0  0  0  0  0  0  0
  1  4  1  0  0  0  0
  1 24  1  0  0  0  0
  2  8  1  0  0  0  0
  2 10  1  0  0  0  0
  3 10  2  0  0  0  0
  4  5  1  0  0  0  0
  4  6  1  0  0  0  0
  4 12  1  0  0  0  0
  5  7  1  0  0  0  0
  5 13  1  0  0  0  0
  5 14  1  0  0  0  0
  6  8  1  0  0  0  0
  6 15  1  0  0  0  0
  6 16  1  0  0  0  0
  7  9  1  0  0  0  0
  7 17  1  0  0  0  0
  7 18  1  0  0  0  0
  8 19  1  0  0  0  0
  8 20  1  0  0  0  0
  9 21  1  0  0  0  0
  9 22  1  0  0  0  0
  9 23  1  0  0  0  0
 10 11  1  0  0  0  0
 11 25  1  0  0  0  0
 11 26  1  0  0  0  0
 11 27  1  0  0  0  0
M  END
> <PUBCHEM_COMPOUND_CID>
518810

> <PUBCHEM_CONFORMER_RMSD>
0.6

> <PUBCHEM_CONFORMER_DIVERSEORDER>
1
184
124
203
217
105
195
104
52
178
189
256
166
59
237
228
17
225
182
194
236
261
164
160
259
224
75
71
262
60
94
122
128
98
58
213
251
68
169
201
260
159
223
249
183
61
113
206
130
254
196
90
144
239
132
200
190
151
149
238
161
78
99
7
63
56
234
185
245
74
198
101
192
110
10
119
214
156
131
76
199
97
35
173
172
85
66
32
258
83
188
148
16
92
204
140
23
177
102
168
207
62
155
65
167
193
5
209
118
219
34
202
212
120
218
153
181
246
240
111
54
152
30
38
109
165
125
226
20
8
123
142
227
247
221
106
84
150
114
137
4
96
171
231
80
205
57
29
37
136
86
55
116
70
186
135
24
115
93
215
180
88
95
162
220
19
143
158
157
3
138
154
79
179
89
43
31
126
53
112
26
232
51
253
242
187
18
129
176
244
134
91
36
44
230
174
108
103
27
145
210
12
175
252
22
250
241
107
133
211
13
87
40
46
72
64
255
81
33
170
216
42
147
139
117
127
73
21
67
248
69
9
25
197
2
191
257
229
39
15
50
77
100
233
208
163
235
146
41
222
45
49
243
28
82
48
14
141
47
121
11
6

> <PUBCHEM_MMFF94_PARTIAL_CHARGES>
8
1 -0.41
10 0.66
11 0.06
2 -0.43
24 0.18
3 -0.57
4 0.23
8 0.28

> <PUBCHEM_EFFECTIVE_ROTOR_COUNT>
6

> <PUBCHEM_PHARMACOPHORE_FEATURES>
2
1 3 acceptor
1 9 hydrophobe

> <PUBCHEM_HEAVY_ATOM_COUNT>
11

> <PUBCHEM_ATOM_DEF_STEREO_COUNT>
0

> <PUBCHEM_ATOM_UDEF_STEREO_COUNT>
1

> <PUBCHEM_BOND_DEF_STEREO_COUNT>
0

> <PUBCHEM_BOND_UDEF_STEREO_COUNT>
0

> <PUBCHEM_ISOTOPIC_ATOM_COUNT>
0

> <PUBCHEM_COMPONENT_COUNT>
1

> <PUBCHEM_CACTVS_TAUTO_COUNT>
1

> <PUBCHEM_CONFORMER_ID>
0007EA9A00000001

> <PUBCHEM_MMFF94_ENERGY>
10.4686

> <PUBCHEM_FEATURE_SELFOVERLAP>
10.148

> <PUBCHEM_SHAPE_FINGERPRINT>
107287 299 18265339576133321304
12346645 6 18340200890604803372
12932764 1 17418092156687459017
13296908 3 18114183059847991529
14251717 144 18342733022601511278
14252887 29 18260838145453769073
15279307 12 17987513895626447662
15477762 27 18412543185176642062
18186145 218 17749389248079366073
20201158 50 18408884023011033594
20279233 1 17967809487736727369
20645477 70 18409721868225276447
20671657 53 18338518513133400590
20708731 107 18412547613430310092
20711978 1 18341049618965415888
20711985 344 17899411982955397252
20871998 22 18268143172165447378
23530152 11 18196655327051295006
23557571 272 17458056084199691261
3248919 1 18410005559420981649
58051976 378 18188767374313953324
581208 293 18342449378755713896
7364860 26 18413107281997250560
81539 233 18262237854153196596
94968 8 18411703145302949126

> <PUBCHEM_SHAPE_MULTIPOLES>
218.49
7.27
2.17
0.91
6.72
0.5
0.04
1.6
-1.04
-3.53
-0.29
0.27
0.08
0.43

> <PUBCHEM_SHAPE_SELFOVERLAP>
389.055

> <PUBCHEM_SHAPE_VOLUME>
143.3

> <PUBCHEM_COORDINATE_TYPE>
2
5
10

$$$$
