519203
  -OEChem-11232109133D

 22 22  0     0  0  0  0  0  0999 V2000
    0.0966    1.3617    0.0006 N   0  0  0  0  0  0  0  0  0  0  0  0
    1.9908   -0.7066   -0.0004 N   0  0  0  0  0  0  0  0  0  0  0  0
   -1.7276   -0.2226   -0.0004 C   0  0  0  0  0  0  0  0  0  0  0  0
   -0.2384    0.0683    0.0004 C   0  0  0  0  0  0  0  0  0  0  0  0
   -2.4063    0.3199   -1.2606 C   0  0  0  0  0  0  0  0  0  0  0  0
   -2.4074    0.3173    1.2603 C   0  0  0  0  0  0  0  0  0  0  0  0
    0.6657   -0.9527   -0.0002 C   0  0  0  0  0  0  0  0  0  0  0  0
    0.2529   -2.3849   -0.0004 C   0  0  0  0  0  0  0  0  0  0  0  0
    1.4216    1.6078    0.0006 C   0  0  0  0  0  0  0  0  0  0  0  0
    2.3521    0.5919    0.0001 C   0  0  0  0  0  0  0  0  0  0  0  0
   -1.9200   -1.2995   -0.0017 H   0  0  0  0  0  0  0  0  0  0  0  0
   -2.3359    1.4117   -1.3204 H   0  0  0  0  0  0  0  0  0  0  0  0
   -3.4684    0.0521   -1.2754 H   0  0  0  0  0  0  0  0  0  0  0  0
   -1.9425   -0.0941   -2.1628 H   0  0  0  0  0  0  0  0  0  0  0  0
   -1.9445   -0.0988    2.1620 H   0  0  0  0  0  0  0  0  0  0  0  0
   -3.4695    0.0497    1.2735 H   0  0  0  0  0  0  0  0  0  0  0  0
   -2.3369    1.4089    1.3226 H   0  0  0  0  0  0  0  0  0  0  0  0
   -0.3262   -2.6266    0.8965 H   0  0  0  0  0  0  0  0  0  0  0  0
   -0.3256   -2.6265   -0.8978 H   0  0  0  0  0  0  0  0  0  0  0  0
    1.1333   -3.0377   -0.0001 H   0  0  0  0  0  0  0  0  0  0  0  0
    1.7127    2.6509    0.0009 H   0  0  0  0  0  0  0  0  0  0  0  0
    3.4167    0.7904    0.0000 H   0  0  0  0  0  0  0  0  0  0  0  0
  1  4  2  0  0  0  0
  1  9  1  0  0  0  0
  2  7  2  0  0  0  0
  2 10  1  0  0  0  0
  3  4  1  0  0  0  0
  3  5  1  0  0  0  0
  3  6  1  0  0  0  0
  3 11  1  0  0  0  0
  4  7  1  0  0  0  0
  5 12  1  0  0  0  0
  5 13  1  0  0  0  0
  5 14  1  0  0  0  0
  6 15  1  0  0  0  0
  6 16  1  0  0  0  0
  6 17  1  0  0  0  0
  7  8  1  0  0  0  0
  8 18  1  0  0  0  0
  8 19  1  0  0  0  0
  8 20  1  0  0  0  0
  9 10  2  0  0  0  0
  9 21  1  0  0  0  0
 10 22  1  0  0  0  0
M  END
> <PUBCHEM_COMPOUND_CID>
519203

> <PUBCHEM_CONFORMER_RMSD>
0.4

> <PUBCHEM_CONFORMER_DIVERSEORDER>
1
2

> <PUBCHEM_MMFF94_PARTIAL_CHARGES>
10
1 -0.62
10 0.16
2 -0.62
21 0.15
22 0.15
3 0.14
4 0.17
7 0.17
8 0.14
9 0.16

> <PUBCHEM_EFFECTIVE_ROTOR_COUNT>
1

> <PUBCHEM_PHARMACOPHORE_FEATURES>
4
1 1 acceptor
1 2 acceptor
3 3 5 6 hydrophobe
6 1 2 4 7 9 10 rings

> <PUBCHEM_HEAVY_ATOM_COUNT>
10

> <PUBCHEM_ATOM_DEF_STEREO_COUNT>
0

> <PUBCHEM_ATOM_UDEF_STEREO_COUNT>
0

> <PUBCHEM_BOND_DEF_STEREO_COUNT>
0

> <PUBCHEM_BOND_UDEF_STEREO_COUNT>
0

> <PUBCHEM_ISOTOPIC_ATOM_COUNT>
0

> <PUBCHEM_COMPONENT_COUNT>
1

> <PUBCHEM_CACTVS_TAUTO_COUNT>
2

> <PUBCHEM_CONFORMER_ID>
0007EC2300000001

> <PUBCHEM_MMFF94_ENERGY>
24.8112

> <PUBCHEM_FEATURE_SELFOVERLAP>
20.301

> <PUBCHEM_SHAPE_FINGERPRINT>
16945 1 18410856538375962662
18185500 45 18200588094990725015
193761 8 17545882633795892388
21040471 1 18266459995666986880
23235685 24 18341057414130637160
2748010 2 18337957921069675438
29004967 10 18261963950665466241
5084963 1 18271799185307885029
528886 8 18412263934560344313
63268167 104 18342451547529692488

> <PUBCHEM_SHAPE_MULTIPOLES>
195.83
3.3
1.81
0.93
0.72
0.88
0
-0.81
0
-0.72
0
0.8
-0.12
0

> <PUBCHEM_SHAPE_SELFOVERLAP>
396.318

> <PUBCHEM_SHAPE_VOLUME>
114.8

> <PUBCHEM_COORDINATE_TYPE>
2
5
10

$$$$
