519564
  -OEChem-11232108573D

 31 31  0     0  0  0  0  0  0999 V2000
   -0.5948    0.8896   -0.5559 N   0  0  0  0  0  0  0  0  0  0  0  0
   -2.4107   -0.8975    0.6167 N   0  0  0  0  0  0  0  0  0  0  0  0
    2.5124    0.3655    0.4174 C   0  0  0  0  0  0  0  0  0  0  0  0
    2.0824   -0.9829   -0.1945 C   0  0  0  0  0  0  0  0  0  0  0  0
    0.8912   -0.9169   -1.1603 C   0  0  0  0  0  0  0  0  0  0  0  0
    2.8765    1.3463   -0.7013 C   0  0  0  0  0  0  0  0  0  0  0  0
    3.6951    0.2195    1.3759 C   0  0  0  0  0  0  0  0  0  0  0  0
   -0.3879   -0.4339   -0.5238 C   0  0  0  0  0  0  0  0  0  0  0  0
   -1.2647   -1.3174    0.0449 C   0  0  0  0  0  0  0  0  0  0  0  0
   -1.7409    1.3094    0.0158 C   0  0  0  0  0  0  0  0  0  0  0  0
   -1.0071   -2.7853    0.0656 C   0  0  0  0  0  0  0  0  0  0  0  0
   -2.6327    0.4316    0.5918 C   0  0  0  0  0  0  0  0  0  0  0  0
   -2.0188    2.7721    0.0075 C   0  0  0  0  0  0  0  0  0  0  0  0
    1.6804    0.7869    0.9937 H   0  0  0  0  0  0  0  0  0  0  0  0
    1.8513   -1.6756    0.6239 H   0  0  0  0  0  0  0  0  0  0  0  0
    2.9340   -1.4199   -0.7324 H   0  0  0  0  0  0  0  0  0  0  0  0
    0.7471   -1.9028   -1.6167 H   0  0  0  0  0  0  0  0  0  0  0  0
    1.1277   -0.2667   -2.0111 H   0  0  0  0  0  0  0  0  0  0  0  0
    3.2801    2.2745   -0.2811 H   0  0  0  0  0  0  0  0  0  0  0  0
    2.0079    1.6285   -1.3021 H   0  0  0  0  0  0  0  0  0  0  0  0
    3.6362    0.9261   -1.3693 H   0  0  0  0  0  0  0  0  0  0  0  0
    3.4460   -0.4656    2.1931 H   0  0  0  0  0  0  0  0  0  0  0  0
    4.5771   -0.1754    0.8603 H   0  0  0  0  0  0  0  0  0  0  0  0
    3.9628    1.1850    1.8179 H   0  0  0  0  0  0  0  0  0  0  0  0
   -1.0032   -3.1944   -0.9495 H   0  0  0  0  0  0  0  0  0  0  0  0
   -0.0607   -3.0180    0.5612 H   0  0  0  0  0  0  0  0  0  0  0  0
   -1.7963   -3.3052    0.6204 H   0  0  0  0  0  0  0  0  0  0  0  0
   -3.5559    0.7613    1.0537 H   0  0  0  0  0  0  0  0  0  0  0  0
   -1.2106    3.3225   -0.4853 H   0  0  0  0  0  0  0  0  0  0  0  0
   -2.9477    2.9804   -0.5326 H   0  0  0  0  0  0  0  0  0  0  0  0
   -2.1083    3.1488    1.0313 H   0  0  0  0  0  0  0  0  0  0  0  0
  1  8  2  0  0  0  0
  1 10  1  0  0  0  0
  2  9  2  0  0  0  0
  2 12  1  0  0  0  0
  3  4  1  0  0  0  0
  3  6  1  0  0  0  0
  3  7  1  0  0  0  0
  3 14  1  0  0  0  0
  4  5  1  0  0  0  0
  4 15  1  0  0  0  0
  4 16  1  0  0  0  0
  5  8  1  0  0  0  0
  5 17  1  0  0  0  0
  5 18  1  0  0  0  0
  6 19  1  0  0  0  0
  6 20  1  0  0  0  0
  6 21  1  0  0  0  0
  7 22  1  0  0  0  0
  7 23  1  0  0  0  0
  7 24  1  0  0  0  0
  8  9  1  0  0  0  0
  9 11  1  0  0  0  0
 10 12  2  0  0  0  0
 10 13  1  0  0  0  0
 11 25  1  0  0  0  0
 11 26  1  0  0  0  0
 11 27  1  0  0  0  0
 12 28  1  0  0  0  0
 13 29  1  0  0  0  0
 13 30  1  0  0  0  0
 13 31  1  0  0  0  0
M  END
> <PUBCHEM_COMPOUND_CID>
519564

> <PUBCHEM_CONFORMER_RMSD>
0.6

> <PUBCHEM_CONFORMER_DIVERSEORDER>
1
5
4
2
6
3

> <PUBCHEM_MMFF94_PARTIAL_CHARGES>
10
1 -0.62
10 0.17
11 0.14
12 0.16
13 0.14
2 -0.62
28 0.15
5 0.14
8 0.17
9 0.17

> <PUBCHEM_EFFECTIVE_ROTOR_COUNT>
3

> <PUBCHEM_PHARMACOPHORE_FEATURES>
4
1 1 acceptor
1 2 acceptor
3 3 6 7 hydrophobe
6 1 2 8 9 10 12 rings

> <PUBCHEM_HEAVY_ATOM_COUNT>
13

> <PUBCHEM_ATOM_DEF_STEREO_COUNT>
0

> <PUBCHEM_ATOM_UDEF_STEREO_COUNT>
0

> <PUBCHEM_BOND_DEF_STEREO_COUNT>
0

> <PUBCHEM_BOND_UDEF_STEREO_COUNT>
0

> <PUBCHEM_ISOTOPIC_ATOM_COUNT>
0

> <PUBCHEM_COMPONENT_COUNT>
1

> <PUBCHEM_CACTVS_TAUTO_COUNT>
2

> <PUBCHEM_CONFORMER_ID>
0007ED8C00000001

> <PUBCHEM_MMFF94_ENERGY>
27.0076

> <PUBCHEM_FEATURE_SELFOVERLAP>
20.301

> <PUBCHEM_SHAPE_FINGERPRINT>
11132069 177 18202284740290451763
12251169 10 18334289877486308888
12382932 28 18338807839057270219
12423570 1 10585926896770968287
12696612 119 18334015012485619236
13764800 53 18131077060135062104
13839132 238 18269001903125318292
14787075 74 16456024146997231494
15076042 46 18335143098129661338
15490181 7 18196658389162809367
15775835 57 17561074817779592912
16945 1 18411422851093637062
17846911 113 18413666903066064081
19973954 147 18339649944842160436
20510252 161 18342183254045159337
20511035 2 18201433624144287790
20525323 117 18341324599819654382
20645464 45 18201439151392663974
20645477 70 9650440431223828817
20871998 184 18199478833908922383
21028194 46 18131350765573865268
21524375 3 18127966412817328613
21650355 55 18192984044277032642
220403 375 18268139851733890271
22445834 79 17894621544316757578
23211744 41 18129106628003169271
23388829 49 17192349440055738599
23402539 116 18271512208932145439
23419403 2 17054677304657192779
23598294 1 18191594257405908266
27216 239 17701799193705294408
2748010 2 18194133927502405967
305870 269 18121492462625299818
369184 2 17240195564500521982
53812653 166 17834125142945313925
6333272 397 18265336101647463277
7097593 13 18115291303439900706
7364860 26 17548135528810654343
81228 2 18340775956534495987

> <PUBCHEM_SHAPE_MULTIPOLES>
257.57
4.98
2.54
1.01
3.59
0.04
-0.06
-1.8
-1.61
-1.84
0.11
0.64
0
0.11

> <PUBCHEM_SHAPE_SELFOVERLAP>
513.726

> <PUBCHEM_SHAPE_VOLUME>
153.4

> <PUBCHEM_COORDINATE_TYPE>
2
5
10

$$$$
