519732
  -OEChem-11232108583D

 17 17  0     0  0  0  0  0  0999 V2000
   -0.3041   -1.2309    0.2551 S   0  0  0  0  0  0  0  0  0  0  0  0
   -1.2673    1.1366   -0.1316 N   0  0  0  0  0  0  0  0  0  0  0  0
    2.2229   -0.1208    0.5402 C   0  0  0  0  0  0  0  0  0  0  0  0
    0.7838    0.0943    0.2938 C   0  0  0  0  0  0  0  0  0  0  0  0
    3.0193   -0.3449   -0.7509 C   0  0  0  0  0  0  0  0  0  0  0  0
   -1.5882   -0.1359   -0.0561 C   0  0  0  0  0  0  0  0  0  0  0  0
    0.0930    1.2667    0.0696 C   0  0  0  0  0  0  0  0  0  0  0  0
   -2.9595   -0.6652   -0.2201 C   0  0  0  0  0  0  0  0  0  0  0  0
    2.6382    0.7526    1.0583 H   0  0  0  0  0  0  0  0  0  0  0  0
    2.3820   -0.9745    1.2103 H   0  0  0  0  0  0  0  0  0  0  0  0
    2.6686   -1.2361   -1.2820 H   0  0  0  0  0  0  0  0  0  0  0  0
    4.0807   -0.4801   -0.5204 H   0  0  0  0  0  0  0  0  0  0  0  0
    2.9220    0.5115   -1.4266 H   0  0  0  0  0  0  0  0  0  0  0  0
    0.5354    2.2537    0.0405 H   0  0  0  0  0  0  0  0  0  0  0  0
   -3.6652    0.1496   -0.4122 H   0  0  0  0  0  0  0  0  0  0  0  0
   -3.0146   -1.3595   -1.0647 H   0  0  0  0  0  0  0  0  0  0  0  0
   -3.2907   -1.1861    0.6841 H   0  0  0  0  0  0  0  0  0  0  0  0
  1  4  1  0  0  0  0
  1  6  1  0  0  0  0
  2  6  2  0  0  0  0
  2  7  1  0  0  0  0
  3  4  1  0  0  0  0
  3  5  1  0  0  0  0
  3  9  1  0  0  0  0
  3 10  1  0  0  0  0
  4  7  2  0  0  0  0
  5 11  1  0  0  0  0
  5 12  1  0  0  0  0
  5 13  1  0  0  0  0
  6  8  1  0  0  0  0
  7 14  1  0  0  0  0
  8 15  1  0  0  0  0
  8 16  1  0  0  0  0
  8 17  1  0  0  0  0
M  END
> <PUBCHEM_COMPOUND_CID>
519732

> <PUBCHEM_CONFORMER_RMSD>
0.4

> <PUBCHEM_CONFORMER_DIVERSEORDER>
2
1
3
4

> <PUBCHEM_MMFF94_PARTIAL_CHARGES>
8
1 -0.08
14 0.15
2 -0.57
3 0.18
4 -0.14
6 0.2
7 0.08
8 0.18

> <PUBCHEM_EFFECTIVE_ROTOR_COUNT>
1

> <PUBCHEM_PHARMACOPHORE_FEATURES>
3
1 2 acceptor
1 5 hydrophobe
5 1 2 4 6 7 rings

> <PUBCHEM_HEAVY_ATOM_COUNT>
8

> <PUBCHEM_ATOM_DEF_STEREO_COUNT>
0

> <PUBCHEM_ATOM_UDEF_STEREO_COUNT>
0

> <PUBCHEM_BOND_DEF_STEREO_COUNT>
0

> <PUBCHEM_BOND_UDEF_STEREO_COUNT>
0

> <PUBCHEM_ISOTOPIC_ATOM_COUNT>
0

> <PUBCHEM_COMPONENT_COUNT>
1

> <PUBCHEM_CACTVS_TAUTO_COUNT>
1

> <PUBCHEM_CONFORMER_ID>
0007EE3400000002

> <PUBCHEM_MMFF94_ENERGY>
2.6732

> <PUBCHEM_FEATURE_SELFOVERLAP>
15.223

> <PUBCHEM_SHAPE_FINGERPRINT>
10857977 72 18340753923045877472
12897270 3 18335138682982486878
14128692 85 18338519758478711685
15310529 11 16298375864384015051
16714656 1 18409730659780523658
20653085 51 15285911395352720959
21040471 1 17977936882844411017
21293036 1 18187366566350726798
23552423 10 17970908851943798162
29004967 10 16702299044686205666
369184 2 13901902289341339242
5084963 1 18272652346117068648

> <PUBCHEM_SHAPE_MULTIPOLES>
163.5
4.05
1.24
0.75
0.6
0.14
-0.02
-0.91
-0.81
-0.29
0.03
0.28
-0.06
0.07

> <PUBCHEM_SHAPE_SELFOVERLAP>
311.767

> <PUBCHEM_SHAPE_VOLUME>
102.8

> <PUBCHEM_COORDINATE_TYPE>
2
5
10

$$$$
