519793
  -OEChem-11232108543D

 19 18  0     0  0  0  0  0  0999 V2000
    2.6586    0.7193   -0.0026 S   0  0  0  0  0  0  0  0  0  0  0  0
   -3.7278   -0.4102    0.0026 O   0  0  0  0  0  0  0  0  0  0  0  0
   -0.0842    0.5131    0.0112 C   0  0  0  0  0  0  0  0  0  0  0  0
   -1.3337   -0.3675    0.0039 C   0  0  0  0  0  0  0  0  0  0  0  0
    1.1824   -0.3373   -0.0155 C   0  0  0  0  0  0  0  0  0  0  0  0
   -2.6081    0.4647   -0.0061 C   0  0  0  0  0  0  0  0  0  0  0  0
    3.9128   -0.5821    0.0065 C   0  0  0  0  0  0  0  0  0  0  0  0
   -0.0959    1.1463    0.9073 H   0  0  0  0  0  0  0  0  0  0  0  0
   -0.1080    1.1787   -0.8609 H   0  0  0  0  0  0  0  0  0  0  0  0
   -1.3275   -1.0295   -0.8712 H   0  0  0  0  0  0  0  0  0  0  0  0
   -1.3370   -1.0286    0.8797 H   0  0  0  0  0  0  0  0  0  0  0  0
    1.1998   -0.9584   -0.9172 H   0  0  0  0  0  0  0  0  0  0  0  0
    1.2097   -0.9951    0.8595 H   0  0  0  0  0  0  0  0  0  0  0  0
   -2.6620    1.1071    0.8786 H   0  0  0  0  0  0  0  0  0  0  0  0
   -2.6604    1.0889   -0.9038 H   0  0  0  0  0  0  0  0  0  0  0  0
    4.9060   -0.1251    0.0121 H   0  0  0  0  0  0  0  0  0  0  0  0
    3.8226   -1.2050   -0.8872 H   0  0  0  0  0  0  0  0  0  0  0  0
    3.8118   -1.2031    0.9004 H   0  0  0  0  0  0  0  0  0  0  0  0
   -4.5248    0.1467   -0.0040 H   0  0  0  0  0  0  0  0  0  0  0  0
  1  5  1  0  0  0  0
  1  7  1  0  0  0  0
  2  6  1  0  0  0  0
  2 19  1  0  0  0  0
  3  4  1  0  0  0  0
  3  5  1  0  0  0  0
  3  8  1  0  0  0  0
  3  9  1  0  0  0  0
  4  6  1  0  0  0  0
  4 10  1  0  0  0  0
  4 11  1  0  0  0  0
  5 12  1  0  0  0  0
  5 13  1  0  0  0  0
  6 14  1  0  0  0  0
  6 15  1  0  0  0  0
  7 16  1  0  0  0  0
  7 17  1  0  0  0  0
  7 18  1  0  0  0  0
M  END
> <PUBCHEM_COMPOUND_CID>
519793

> <PUBCHEM_CONFORMER_RMSD>
0.6

> <PUBCHEM_CONFORMER_DIVERSEORDER>
1
38
5
27
39
34
32
23
11
36
8
25
37
14
16
7
41
12
26
3
40
28
24
2
15
6
18
13
30
35
10
17
20
33
29
19
21
31
9
22
4

> <PUBCHEM_MMFF94_PARTIAL_CHARGES>
6
1 -0.46
19 0.4
2 -0.68
5 0.23
6 0.28
7 0.23

> <PUBCHEM_EFFECTIVE_ROTOR_COUNT>
4

> <PUBCHEM_PHARMACOPHORE_FEATURES>
4
1 2 acceptor
1 2 donor
1 7 hydrophobe
4 1 3 4 5 hydrophobe

> <PUBCHEM_HEAVY_ATOM_COUNT>
7

> <PUBCHEM_ATOM_DEF_STEREO_COUNT>
0

> <PUBCHEM_ATOM_UDEF_STEREO_COUNT>
0

> <PUBCHEM_BOND_DEF_STEREO_COUNT>
0

> <PUBCHEM_BOND_UDEF_STEREO_COUNT>
0

> <PUBCHEM_ISOTOPIC_ATOM_COUNT>
0

> <PUBCHEM_COMPONENT_COUNT>
1

> <PUBCHEM_CACTVS_TAUTO_COUNT>
1

> <PUBCHEM_CONFORMER_ID>
0007EE7100000001

> <PUBCHEM_MMFF94_ENERGY>
5.059

> <PUBCHEM_FEATURE_SELFOVERLAP>
20.297

> <PUBCHEM_SHAPE_FINGERPRINT>
11062470 55 18410856563971777568
12932764 1 15864341489151238720
14325111 11 18410574002489621344
14390081 3 18412824698407307185
20719005 15 18410856568461917187
21293036 1 13623534549939640278
5460574 1 9223234044087977413

> <PUBCHEM_SHAPE_MULTIPOLES>
142.04
6.89
0.88
0.62
0.14
0.07
0
-0.92
-0.01
-0.29
0
-0.08
0.01
0

> <PUBCHEM_SHAPE_SELFOVERLAP>
231.976

> <PUBCHEM_SHAPE_VOLUME>
99.6

> <PUBCHEM_COORDINATE_TYPE>
2
5
10

$$$$
