519709
  -OEChem-11232108423D

 18 17  0     1  0  0  0  0  0999 V2000
   -2.7819    0.6289   -0.7697 S   0  0  0  0  0  0  0  0  0  0  0  0
    0.9480   -0.2951   -0.2550 O   0  0  0  0  0  0  0  0  0  0  0  0
   -0.2574    1.3927    0.7473 O   0  0  0  0  0  0  0  0  0  0  0  0
   -1.3917   -0.4717   -0.3523 C   0  0  2  0  0  0  0  0  0  0  0  0
   -1.8174   -1.4628    0.7209 C   0  0  0  0  0  0  0  0  0  0  0  0
   -0.2030    0.3438    0.1191 C   0  0  0  0  0  0  0  0  0  0  0  0
    2.1661    0.3455    0.1381 C   0  0  0  0  0  0  0  0  0  0  0  0
    3.3373   -0.4812   -0.3483 C   0  0  0  0  0  0  0  0  0  0  0  0
   -1.1214   -0.9998   -1.2731 H   0  0  0  0  0  0  0  0  0  0  0  0
   -0.9909   -2.1405    0.9631 H   0  0  0  0  0  0  0  0  0  0  0  0
   -2.0985   -0.9581    1.6526 H   0  0  0  0  0  0  0  0  0  0  0  0
   -2.6610   -2.0779    0.3896 H   0  0  0  0  0  0  0  0  0  0  0  0
    2.2110    1.3470   -0.3039 H   0  0  0  0  0  0  0  0  0  0  0  0
    2.1993    0.4276    1.2302 H   0  0  0  0  0  0  0  0  0  0  0  0
    4.2869   -0.0193   -0.0642 H   0  0  0  0  0  0  0  0  0  0  0  0
    3.2961   -1.4919    0.0710 H   0  0  0  0  0  0  0  0  0  0  0  0
    3.3077   -0.5876   -1.4377 H   0  0  0  0  0  0  0  0  0  0  0  0
   -3.6073   -0.3274   -1.2204 H   0  0  0  0  0  0  0  0  0  0  0  0
  1  4  1  0  0  0  0
  1 18  1  0  0  0  0
  2  6  1  0  0  0  0
  2  7  1  0  0  0  0
  3  6  2  0  0  0  0
  4  5  1  0  0  0  0
  4  6  1  0  0  0  0
  4  9  1  0  0  0  0
  5 10  1  0  0  0  0
  5 11  1  0  0  0  0
  5 12  1  0  0  0  0
  7  8  1  0  0  0  0
  7 13  1  0  0  0  0
  7 14  1  0  0  0  0
  8 15  1  0  0  0  0
  8 16  1  0  0  0  0
  8 17  1  0  0  0  0
M  END
> <PUBCHEM_COMPOUND_CID>
519709

> <PUBCHEM_CONFORMER_RMSD>
0.6

> <PUBCHEM_CONFORMER_DIVERSEORDER>
1
26
13
17
24
6
25
21
20
18
22
16
14
7
4
3
5
9
11
23
2
19
8
12
15
10

> <PUBCHEM_MMFF94_PARTIAL_CHARGES>
7
1 -0.41
18 0.18
2 -0.43
3 -0.57
4 0.29
6 0.66
7 0.28

> <PUBCHEM_EFFECTIVE_ROTOR_COUNT>
3

> <PUBCHEM_PHARMACOPHORE_FEATURES>
1
1 3 acceptor

> <PUBCHEM_HEAVY_ATOM_COUNT>
8

> <PUBCHEM_ATOM_DEF_STEREO_COUNT>
0

> <PUBCHEM_ATOM_UDEF_STEREO_COUNT>
1

> <PUBCHEM_BOND_DEF_STEREO_COUNT>
0

> <PUBCHEM_BOND_UDEF_STEREO_COUNT>
0

> <PUBCHEM_ISOTOPIC_ATOM_COUNT>
0

> <PUBCHEM_COMPONENT_COUNT>
1

> <PUBCHEM_CACTVS_TAUTO_COUNT>
1

> <PUBCHEM_CONFORMER_ID>
0007EE1D00000001

> <PUBCHEM_MMFF94_ENERGY>
7.5546

> <PUBCHEM_FEATURE_SELFOVERLAP>
5.074

> <PUBCHEM_SHAPE_FINGERPRINT>
11062470 55 16630520730844024061
12716758 59 18261103080331938155
12932741 1 18411695530193635688
12932764 1 16733256915510563652
16714656 1 17822003199301061037
20211469 26 15267337409896605220
20653085 51 17167870741940020204
21040471 1 18041823044420281477
23552423 10 18114746035471080582
29004967 10 18201725110214868546

> <PUBCHEM_SHAPE_MULTIPOLES>
156.75
4.67
1.24
0.85
2.77
0.24
-0.02
0.21
1.1
-0.75
-0.26
-0.2
-0.07
0.43

> <PUBCHEM_SHAPE_SELFOVERLAP>
276.209

> <PUBCHEM_SHAPE_VOLUME>
104.6

> <PUBCHEM_COORDINATE_TYPE>
2
5
10

$$$$
