519786
  -OEChem-11232109253D

 29 28  0     0  0  0  0  0  0999 V2000
   -0.4362    0.2580    0.4459 O   0  0  0  0  0  0  0  0  0  0  0  0
   -1.4547   -1.0716   -1.1398 O   0  0  0  0  0  0  0  0  0  0  0  0
    3.3486    0.2670    0.3241 C   0  0  0  0  0  0  0  0  0  0  0  0
    1.9134    0.5817    0.7762 C   0  0  0  0  0  0  0  0  0  0  0  0
    0.8421   -0.1216   -0.0484 C   0  0  0  0  0  0  0  0  0  0  0  0
    3.5987   -1.2410    0.4004 C   0  0  0  0  0  0  0  0  0  0  0  0
    3.6360    0.7673   -1.0921 C   0  0  0  0  0  0  0  0  0  0  0  0
   -2.8005    0.2112    0.4321 C   0  0  0  0  0  0  0  0  0  0  0  0
   -1.5135   -0.2945   -0.1958 C   0  0  0  0  0  0  0  0  0  0  0  0
   -3.2407    1.4955   -0.2604 C   0  0  0  0  0  0  0  0  0  0  0  0
   -3.8932   -0.8521    0.3579 C   0  0  0  0  0  0  0  0  0  0  0  0
    4.0364    0.7708    1.0145 H   0  0  0  0  0  0  0  0  0  0  0  0
    1.7440    1.6657    0.7395 H   0  0  0  0  0  0  0  0  0  0  0  0
    1.7893    0.3062    1.8318 H   0  0  0  0  0  0  0  0  0  0  0  0
    0.9109    0.1680   -1.1020 H   0  0  0  0  0  0  0  0  0  0  0  0
    0.9344   -1.2091    0.0360 H   0  0  0  0  0  0  0  0  0  0  0  0
    4.6636   -1.4520    0.2508 H   0  0  0  0  0  0  0  0  0  0  0  0
    3.0515   -1.7959   -0.3682 H   0  0  0  0  0  0  0  0  0  0  0  0
    3.3201   -1.6385    1.3820 H   0  0  0  0  0  0  0  0  0  0  0  0
    3.0557    0.2293   -1.8481 H   0  0  0  0  0  0  0  0  0  0  0  0
    4.6957    0.6319   -1.3352 H   0  0  0  0  0  0  0  0  0  0  0  0
    3.4083    1.8347   -1.1805 H   0  0  0  0  0  0  0  0  0  0  0  0
   -2.6076    0.4139    1.4930 H   0  0  0  0  0  0  0  0  0  0  0  0
   -4.1538    1.8926    0.1948 H   0  0  0  0  0  0  0  0  0  0  0  0
   -3.4340    1.3268   -1.3257 H   0  0  0  0  0  0  0  0  0  0  0  0
   -2.4634    2.2638   -0.1865 H   0  0  0  0  0  0  0  0  0  0  0  0
   -4.8011   -0.5133    0.8677 H   0  0  0  0  0  0  0  0  0  0  0  0
   -3.5628   -1.7817    0.8340 H   0  0  0  0  0  0  0  0  0  0  0  0
   -4.1544   -1.0876   -0.6798 H   0  0  0  0  0  0  0  0  0  0  0  0
  1  5  1  0  0  0  0
  1  9  1  0  0  0  0
  2  9  2  0  0  0  0
  3  4  1  0  0  0  0
  3  6  1  0  0  0  0
  3  7  1  0  0  0  0
  3 12  1  0  0  0  0
  4  5  1  0  0  0  0
  4 13  1  0  0  0  0
  4 14  1  0  0  0  0
  5 15  1  0  0  0  0
  5 16  1  0  0  0  0
  6 17  1  0  0  0  0
  6 18  1  0  0  0  0
  6 19  1  0  0  0  0
  7 20  1  0  0  0  0
  7 21  1  0  0  0  0
  7 22  1  0  0  0  0
  8  9  1  0  0  0  0
  8 10  1  0  0  0  0
  8 11  1  0  0  0  0
  8 23  1  0  0  0  0
 10 24  1  0  0  0  0
 10 25  1  0  0  0  0
 10 26  1  0  0  0  0
 11 27  1  0  0  0  0
 11 28  1  0  0  0  0
 11 29  1  0  0  0  0
M  END
> <PUBCHEM_COMPOUND_CID>
519786

> <PUBCHEM_CONFORMER_RMSD>
0.6

> <PUBCHEM_CONFORMER_DIVERSEORDER>
1
55
54
26
52
14
19
5
22
53
42
6
18
33
34
27
37
28
51
40
35
4
38
49
2
39
13
25
15
3
36
45
32
21
11
16
46
23
24
44
29
43
48
8
17
50
7
20
30
47
9
31
12
41
10

> <PUBCHEM_MMFF94_PARTIAL_CHARGES>
5
1 -0.43
2 -0.57
5 0.28
8 0.06
9 0.66

> <PUBCHEM_EFFECTIVE_ROTOR_COUNT>
5

> <PUBCHEM_PHARMACOPHORE_FEATURES>
3
1 2 acceptor
3 3 6 7 hydrophobe
3 8 10 11 hydrophobe

> <PUBCHEM_HEAVY_ATOM_COUNT>
11

> <PUBCHEM_ATOM_DEF_STEREO_COUNT>
0

> <PUBCHEM_ATOM_UDEF_STEREO_COUNT>
0

> <PUBCHEM_BOND_DEF_STEREO_COUNT>
0

> <PUBCHEM_BOND_UDEF_STEREO_COUNT>
0

> <PUBCHEM_ISOTOPIC_ATOM_COUNT>
0

> <PUBCHEM_COMPONENT_COUNT>
1

> <PUBCHEM_CACTVS_TAUTO_COUNT>
1

> <PUBCHEM_CONFORMER_ID>
0007EE6A00000001

> <PUBCHEM_MMFF94_ENERGY>
10.9721

> <PUBCHEM_FEATURE_SELFOVERLAP>
15.223

> <PUBCHEM_SHAPE_FINGERPRINT>
10751810 167 18412833473141420520
11062470 55 11024110949240565451
124424 183 18201712916723626441
12932764 1 18201994464867664416
14144814 61 17846781784511982874
14325111 11 18335138687171887730
18186145 218 17489869349400446296
18522853 295 17703795803832031198
190213 19 18113614590555737056
19026448 5 18040718060508363248
19422 9 18187085044176751170
1986462 14 18341895182082895829
20279233 1 15913325810469221118
20645464 45 17274826865551232999
20645476 183 18339931523125063350
20645477 70 18337953394427690782
20711983 171 18333734585016802605
20828058 21 18412268345460043732
22169311 21 14189568641908621308
3248919 1 17967803981588614898

> <PUBCHEM_SHAPE_MULTIPOLES>
214.64
8.19
1.23
0.93
0.7
0.07
-0.15
-0.02
-0.02
-0.22
-0.1
0.28
0.01
-0.35

> <PUBCHEM_SHAPE_SELFOVERLAP>
395.033

> <PUBCHEM_SHAPE_VOLUME>
137.4

> <PUBCHEM_COORDINATE_TYPE>
2
5
10

$$$$
