519890
  -OEChem-11232109053D

 23 22  0     1  0  0  0  0  0999 V2000
   -1.3051    0.5091    0.7771 O   0  0  0  0  0  0  0  0  0  0  0  0
   -1.4389    0.3773   -1.5224 O   0  0  0  0  0  0  0  0  0  0  0  0
    0.0294   -1.1173   -0.2939 C   0  0  1  0  0  0  0  0  0  0  0  0
    1.3067   -0.5977    0.3809 C   0  0  0  0  0  0  0  0  0  0  0  0
    1.9891    0.5074   -0.4309 C   0  0  0  0  0  0  0  0  0  0  0  0
   -0.6029   -2.2446    0.5193 C   0  0  0  0  0  0  0  0  0  0  0  0
   -0.9871    0.0001   -0.4485 C   0  0  0  0  0  0  0  0  0  0  0  0
    3.2639    0.9865    0.2462 C   0  0  0  0  0  0  0  0  0  0  0  0
   -2.2551    1.5791    0.7723 C   0  0  0  0  0  0  0  0  0  0  0  0
    0.2687   -1.4928   -1.2963 H   0  0  0  0  0  0  0  0  0  0  0  0
    1.0863   -0.2222    1.3883 H   0  0  0  0  0  0  0  0  0  0  0  0
    2.0075   -1.4331    0.5062 H   0  0  0  0  0  0  0  0  0  0  0  0
    1.3181    1.3645   -0.5547 H   0  0  0  0  0  0  0  0  0  0  0  0
    2.2312    0.1358   -1.4333 H   0  0  0  0  0  0  0  0  0  0  0  0
    0.0659   -3.1108    0.5595 H   0  0  0  0  0  0  0  0  0  0  0  0
   -0.8156   -1.9383    1.5495 H   0  0  0  0  0  0  0  0  0  0  0  0
   -1.5477   -2.5681    0.0687 H   0  0  0  0  0  0  0  0  0  0  0  0
    3.0508    1.3950    1.2392 H   0  0  0  0  0  0  0  0  0  0  0  0
    3.9808    0.1668    0.3578 H   0  0  0  0  0  0  0  0  0  0  0  0
    3.7373    1.7727   -0.3502 H   0  0  0  0  0  0  0  0  0  0  0  0
   -2.4207    1.8912    1.8069 H   0  0  0  0  0  0  0  0  0  0  0  0
   -3.2062    1.2395    0.3513 H   0  0  0  0  0  0  0  0  0  0  0  0
   -1.8633    2.4303    0.2073 H   0  0  0  0  0  0  0  0  0  0  0  0
  1  7  1  0  0  0  0
  1  9  1  0  0  0  0
  2  7  2  0  0  0  0
  3  4  1  0  0  0  0
  3  6  1  0  0  0  0
  3  7  1  0  0  0  0
  3 10  1  0  0  0  0
  4  5  1  0  0  0  0
  4 11  1  0  0  0  0
  4 12  1  0  0  0  0
  5  8  1  0  0  0  0
  5 13  1  0  0  0  0
  5 14  1  0  0  0  0
  6 15  1  0  0  0  0
  6 16  1  0  0  0  0
  6 17  1  0  0  0  0
  8 18  1  0  0  0  0
  8 19  1  0  0  0  0
  8 20  1  0  0  0  0
  9 21  1  0  0  0  0
  9 22  1  0  0  0  0
  9 23  1  0  0  0  0
M  END
> <PUBCHEM_COMPOUND_CID>
519890

> <PUBCHEM_CONFORMER_RMSD>
0.6

> <PUBCHEM_CONFORMER_DIVERSEORDER>
7
16
24
21
10
28
6
22
26
12
13
17
15
27
9
20
8
18
14
2
19
11
5
4
23
25
3
1

> <PUBCHEM_MMFF94_PARTIAL_CHARGES>
5
1 -0.43
2 -0.57
3 0.06
7 0.66
9 0.28

> <PUBCHEM_EFFECTIVE_ROTOR_COUNT>
4

> <PUBCHEM_PHARMACOPHORE_FEATURES>
3
1 2 acceptor
1 6 hydrophobe
1 8 hydrophobe

> <PUBCHEM_HEAVY_ATOM_COUNT>
9

> <PUBCHEM_ATOM_DEF_STEREO_COUNT>
0

> <PUBCHEM_ATOM_UDEF_STEREO_COUNT>
1

> <PUBCHEM_BOND_DEF_STEREO_COUNT>
0

> <PUBCHEM_BOND_UDEF_STEREO_COUNT>
0

> <PUBCHEM_ISOTOPIC_ATOM_COUNT>
0

> <PUBCHEM_COMPONENT_COUNT>
1

> <PUBCHEM_CACTVS_TAUTO_COUNT>
1

> <PUBCHEM_CONFORMER_ID>
0007EED200000007

> <PUBCHEM_MMFF94_ENERGY>
7.7267

> <PUBCHEM_FEATURE_SELFOVERLAP>
15.223

> <PUBCHEM_SHAPE_FINGERPRINT>
100427 49 17261313016820328624
12932764 1 17603861248076456020
15310529 11 17132117956904925838
18342897 96 18060137630667961376
19837323 101 18059863890995532874
19973954 147 18125724736705952552
20653085 51 17417827105623230312
21028194 46 18271536320477280448
21040471 1 18410584967630831314
23235685 24 18412262830912141048
5084963 1 18266998605861517254

> <PUBCHEM_SHAPE_MULTIPOLES>
173.48
3.61
1.86
1.03
2.79
0.77
0.24
-2.34
-0.44
-0.81
-0.51
-0.44
-0.13
-0.17

> <PUBCHEM_SHAPE_SELFOVERLAP>
316.693

> <PUBCHEM_SHAPE_VOLUME>
111.8

> <PUBCHEM_COORDINATE_TYPE>
2
5
10

$$$$
