520148
  -OEChem-11232109023D

 33 33  0     1  0  0  0  0  0999 V2000
    0.9224    0.8523    0.3100 O   0  0  0  0  0  0  0  0  0  0  0  0
    2.6835    1.2238   -1.1331 O   0  0  0  0  0  0  0  0  0  0  0  0
    2.8195   -0.5283    0.5493 C   0  0  1  0  0  0  0  0  0  0  0  0
    3.1229   -1.7086   -0.3850 C   0  0  0  0  0  0  0  0  0  0  0  0
    4.0969   -0.0116    1.2054 C   0  0  0  0  0  0  0  0  0  0  0  0
    2.1679    0.6215   -0.2001 C   0  0  0  0  0  0  0  0  0  0  0  0
   -1.1820    2.0433    0.3437 C   0  0  0  0  0  0  0  0  0  0  0  0
    0.1804    1.8981   -0.3253 C   0  0  0  0  0  0  0  0  0  0  0  0
    1.8685   -2.2735   -1.0393 C   0  0  0  0  0  0  0  0  0  0  0  0
   -2.0169    0.7916    0.2231 C   0  0  0  0  0  0  0  0  0  0  0  0
   -2.8577    0.6383   -0.8682 C   0  0  0  0  0  0  0  0  0  0  0  0
   -1.9276   -0.1823    1.2053 C   0  0  0  0  0  0  0  0  0  0  0  0
   -3.6291   -0.5184   -0.9799 C   0  0  0  0  0  0  0  0  0  0  0  0
   -2.6990   -1.3390    1.0934 C   0  0  0  0  0  0  0  0  0  0  0  0
   -3.5498   -1.5070    0.0008 C   0  0  0  0  0  0  0  0  0  0  0  0
    2.1412   -0.8688    1.3421 H   0  0  0  0  0  0  0  0  0  0  0  0
    3.8204   -1.3994   -1.1732 H   0  0  0  0  0  0  0  0  0  0  0  0
    3.6150   -2.5067    0.1838 H   0  0  0  0  0  0  0  0  0  0  0  0
    3.8803    0.8370    1.8637 H   0  0  0  0  0  0  0  0  0  0  0  0
    4.5696   -0.7947    1.8073 H   0  0  0  0  0  0  0  0  0  0  0  0
    4.8233    0.3281    0.4587 H   0  0  0  0  0  0  0  0  0  0  0  0
   -1.0477    2.2783    1.4075 H   0  0  0  0  0  0  0  0  0  0  0  0
   -1.7215    2.8927   -0.0928 H   0  0  0  0  0  0  0  0  0  0  0  0
    0.7330    2.8398   -0.2283 H   0  0  0  0  0  0  0  0  0  0  0  0
    0.0610    1.6617   -1.3897 H   0  0  0  0  0  0  0  0  0  0  0  0
    1.1380   -2.5823   -0.2846 H   0  0  0  0  0  0  0  0  0  0  0  0
    2.1227   -3.1503   -1.6433 H   0  0  0  0  0  0  0  0  0  0  0  0
    1.3936   -1.5412   -1.6995 H   0  0  0  0  0  0  0  0  0  0  0  0
   -2.9246    1.4017   -1.6380 H   0  0  0  0  0  0  0  0  0  0  0  0
   -1.2685   -0.0619    2.0602 H   0  0  0  0  0  0  0  0  0  0  0  0
   -4.2910   -0.6497   -1.8309 H   0  0  0  0  0  0  0  0  0  0  0  0
   -2.6370   -2.1092    1.8568 H   0  0  0  0  0  0  0  0  0  0  0  0
   -4.1502   -2.4079   -0.0864 H   0  0  0  0  0  0  0  0  0  0  0  0
  1  6  1  0  0  0  0
  1  8  1  0  0  0  0
  2  6  2  0  0  0  0
  3  4  1  0  0  0  0
  3  5  1  0  0  0  0
  3  6  1  0  0  0  0
  3 16  1  0  0  0  0
  4  9  1  0  0  0  0
  4 17  1  0  0  0  0
  4 18  1  0  0  0  0
  5 19  1  0  0  0  0
  5 20  1  0  0  0  0
  5 21  1  0  0  0  0
  7  8  1  0  0  0  0
  7 10  1  0  0  0  0
  7 22  1  0  0  0  0
  7 23  1  0  0  0  0
  8 24  1  0  0  0  0
  8 25  1  0  0  0  0
  9 26  1  0  0  0  0
  9 27  1  0  0  0  0
  9 28  1  0  0  0  0
 10 11  2  0  0  0  0
 10 12  1  0  0  0  0
 11 13  1  0  0  0  0
 11 29  1  0  0  0  0
 12 14  2  0  0  0  0
 12 30  1  0  0  0  0
 13 15  2  0  0  0  0
 13 31  1  0  0  0  0
 14 15  1  0  0  0  0
 14 32  1  0  0  0  0
 15 33  1  0  0  0  0
M  END
> <PUBCHEM_COMPOUND_CID>
520148

> <PUBCHEM_CONFORMER_RMSD>
0.8

> <PUBCHEM_CONFORMER_DIVERSEORDER>
1
32
85
64
92
22
67
110
43
94
96
83
109
69
77
105
60
112
4
5
82
10
106
95
39
26
72
55
30
47
14
28
12
90
18
50
99
68
91
51
76
86
63
19
74
7
71
42
84
44
81
61
57
34
93
11
101
65
23
25
75
56
58
8
3
24
45
108
38
113
31
36
79
78
89
37
80
17
20
70
107
41
73
102
2
15
49
97
103
115
16
48
53
13
100
59
62
35
9
27
114
66
88
52
54
21
6
98
104
40
111
87
46
33
29

> <PUBCHEM_MMFF94_PARTIAL_CHARGES>
17
1 -0.43
10 -0.14
11 -0.15
12 -0.15
13 -0.15
14 -0.15
15 -0.15
2 -0.57
29 0.15
3 0.06
30 0.15
31 0.15
32 0.15
33 0.15
6 0.66
7 0.14
8 0.28

> <PUBCHEM_EFFECTIVE_ROTOR_COUNT>
6

> <PUBCHEM_PHARMACOPHORE_FEATURES>
4
1 2 acceptor
1 5 hydrophobe
1 9 hydrophobe
6 10 11 12 13 14 15 rings

> <PUBCHEM_HEAVY_ATOM_COUNT>
15

> <PUBCHEM_ATOM_DEF_STEREO_COUNT>
0

> <PUBCHEM_ATOM_UDEF_STEREO_COUNT>
1

> <PUBCHEM_BOND_DEF_STEREO_COUNT>
0

> <PUBCHEM_BOND_UDEF_STEREO_COUNT>
0

> <PUBCHEM_ISOTOPIC_ATOM_COUNT>
0

> <PUBCHEM_COMPONENT_COUNT>
1

> <PUBCHEM_CACTVS_TAUTO_COUNT>
1

> <PUBCHEM_CONFORMER_ID>
0007EFD400000001

> <PUBCHEM_MMFF94_ENERGY>
24.091

> <PUBCHEM_FEATURE_SELFOVERLAP>
20.297

> <PUBCHEM_SHAPE_FINGERPRINT>
10618630 7 18413109441806338950
11127187 94 17966971621385173587
11137873 295 18335141994760909763
12363563 72 18334298660277879818
12553582 1 18340220672960301209
12670545 2 17895177888389035371
128993 33 10159692482415571767
13897977 13 11383831601890624227
14251705 54 18411425033037672391
15375358 24 18338223890961148925
17834072 14 18409718556530957112
19107657 162 18412543184933951506
19107657 46 18413108376691626255
20201158 50 18335136488196293243
20442098 301 18272094842287751566
20645477 70 18336823208047969711
20671657 53 17749384871159668300
21864079 5 8358259232943039623
23503958 25 10663813096273570954
23559900 14 18339067212638892376
25 1 8574440841251318976
27216 239 10663810889055630143
474229 33 18342170112088467298
5262128 65 18261122862951407256
81228 2 18265054630607309865
9709674 26 18339640036278606038
9882013 296 16773788234077908832

> <PUBCHEM_SHAPE_MULTIPOLES>
296.95
7.45
2.23
1.2
1.55
0.18
-0.08
2.78
-0.25
0.23
0.41
0
0.19
0.43

> <PUBCHEM_SHAPE_SELFOVERLAP>
595.231

> <PUBCHEM_SHAPE_VOLUME>
175.1

> <PUBCHEM_COORDINATE_TYPE>
2
5
10

$$$$
