520194
  -OEChem-11232109103D

 20 20  0     0  0  0  0  0  0999 V2000
    2.3731    1.0627    0.3988 O   0  0  0  0  0  0  0  0  0  0  0  0
   -0.3523   -1.1450    0.2251 N   0  0  0  0  0  0  0  0  0  0  0  0
   -2.4905   -0.1355   -0.3646 C   0  0  0  0  0  0  0  0  0  0  0  0
   -1.7854   -1.2363    0.4334 C   0  0  0  0  0  0  0  0  0  0  0  0
   -1.8731    1.2504   -0.1091 C   0  0  0  0  0  0  0  0  0  0  0  0
    0.2844    0.0563    0.0360 C   0  0  0  0  0  0  0  0  0  0  0  0
   -0.3671    1.2202   -0.1107 C   0  0  0  0  0  0  0  0  0  0  0  0
    1.7478    0.0750    0.0047 C   0  0  0  0  0  0  0  0  0  0  0  0
    2.4630   -1.1478   -0.5135 C   0  0  0  0  0  0  0  0  0  0  0  0
   -3.5595   -0.1197   -0.1251 H   0  0  0  0  0  0  0  0  0  0  0  0
   -2.4079   -0.3650   -1.4355 H   0  0  0  0  0  0  0  0  0  0  0  0
   -2.0035   -1.1244    1.5015 H   0  0  0  0  0  0  0  0  0  0  0  0
   -2.1448   -2.2216    0.1197 H   0  0  0  0  0  0  0  0  0  0  0  0
   -2.2146    1.6401    0.8570 H   0  0  0  0  0  0  0  0  0  0  0  0
   -2.2242    1.9432   -0.8822 H   0  0  0  0  0  0  0  0  0  0  0  0
    0.2135   -1.9673    0.4028 H   0  0  0  0  0  0  0  0  0  0  0  0
    0.1530    2.1644   -0.2386 H   0  0  0  0  0  0  0  0  0  0  0  0
    1.9024   -1.6115   -1.3300 H   0  0  0  0  0  0  0  0  0  0  0  0
    2.6092   -1.8625    0.3001 H   0  0  0  0  0  0  0  0  0  0  0  0
    3.4374   -0.8495   -0.9120 H   0  0  0  0  0  0  0  0  0  0  0  0
  1  8  2  0  0  0  0
  2  4  1  0  0  0  0
  2  6  1  0  0  0  0
  2 16  1  0  0  0  0
  3  4  1  0  0  0  0
  3  5  1  0  0  0  0
  3 10  1  0  0  0  0
  3 11  1  0  0  0  0
  4 12  1  0  0  0  0
  4 13  1  0  0  0  0
  5  7  1  0  0  0  0
  5 14  1  0  0  0  0
  5 15  1  0  0  0  0
  6  7  2  0  0  0  0
  6  8  1  0  0  0  0
  7 17  1  0  0  0  0
  8  9  1  0  0  0  0
  9 18  1  0  0  0  0
  9 19  1  0  0  0  0
  9 20  1  0  0  0  0
M  END
> <PUBCHEM_COMPOUND_CID>
520194

> <PUBCHEM_CONFORMER_RMSD>
0.4

> <PUBCHEM_CONFORMER_DIVERSEORDER>
1
6
4
2
5
3

> <PUBCHEM_MMFF94_PARTIAL_CHARGES>
10
1 -0.57
16 0.4
17 0.15
2 -0.87
4 0.37
5 0.14
6 0.11
7 -0.29
8 0.49
9 0.06

> <PUBCHEM_EFFECTIVE_ROTOR_COUNT>
1.8

> <PUBCHEM_PHARMACOPHORE_FEATURES>
4
1 1 acceptor
1 2 cation
1 2 donor
6 2 3 4 5 6 7 rings

> <PUBCHEM_HEAVY_ATOM_COUNT>
9

> <PUBCHEM_ATOM_DEF_STEREO_COUNT>
0

> <PUBCHEM_ATOM_UDEF_STEREO_COUNT>
0

> <PUBCHEM_BOND_DEF_STEREO_COUNT>
0

> <PUBCHEM_BOND_UDEF_STEREO_COUNT>
0

> <PUBCHEM_ISOTOPIC_ATOM_COUNT>
0

> <PUBCHEM_COMPONENT_COUNT>
1

> <PUBCHEM_CACTVS_TAUTO_COUNT>
5

> <PUBCHEM_CONFORMER_ID>
0007F00200000001

> <PUBCHEM_MMFF94_ENERGY>
12.273

> <PUBCHEM_FEATURE_SELFOVERLAP>
20.297

> <PUBCHEM_SHAPE_FINGERPRINT>
10857977 72 18264761241406423369
12716758 59 18334574603399938667
12897270 3 18410292510216977662
12932764 1 17346597508112474804
14325111 11 18410572859928275749
16714656 1 18334297543765607349
16945 1 18339081617563226181
19973954 147 18411703188030887496
20201158 50 18271243824709661270
21040471 1 18189896422410497397
23552423 10 18187369830657844342
2748010 2 18410012143325979103
29004967 10 18341897453867303514
369184 2 17988923374985771313
5084963 1 18338800017884835836

> <PUBCHEM_SHAPE_MULTIPOLES>
174.37
3.71
1.5
0.69
0.88
0
0.02
0.29
0.3
-0.16
-0.07
0.01
0.04
0.38

> <PUBCHEM_SHAPE_SELFOVERLAP>
345.911

> <PUBCHEM_SHAPE_VOLUME>
102.9

> <PUBCHEM_COORDINATE_TYPE>
2
5
10

$$$$
