520326
  -OEChem-11232109133D

 32 31  0     1  0  0  0  0  0999 V2000
   -0.1772   -0.1334   -0.5068 O   0  0  0  0  0  0  0  0  0  0  0  0
   -1.1556   -0.5103    1.5481 O   0  0  0  0  0  0  0  0  0  0  0  0
    3.6032    0.1858   -0.4227 C   0  0  0  0  0  0  0  0  0  0  0  0
    2.1642    0.1478   -0.9621 C   0  0  0  0  0  0  0  0  0  0  0  0
   -2.5213   -0.3888   -0.4614 C   0  0  1  0  0  0  0  0  0  0  0  0
    1.1124   -0.0995    0.1126 C   0  0  0  0  0  0  0  0  0  0  0  0
   -3.5029    0.6964    0.0042 C   0  0  0  0  0  0  0  0  0  0  0  0
    3.7327    1.2836    0.6358 C   0  0  0  0  0  0  0  0  0  0  0  0
    4.0393   -1.1555    0.1683 C   0  0  0  0  0  0  0  0  0  0  0  0
   -1.2292   -0.3486    0.3368 C   0  0  0  0  0  0  0  0  0  0  0  0
   -3.1340   -1.7788   -0.3142 C   0  0  0  0  0  0  0  0  0  0  0  0
   -2.9316    2.1014   -0.1386 C   0  0  0  0  0  0  0  0  0  0  0  0
    4.2696    0.4272   -1.2600 H   0  0  0  0  0  0  0  0  0  0  0  0
    2.0796   -0.6268   -1.7351 H   0  0  0  0  0  0  0  0  0  0  0  0
    1.9358    1.0919   -1.4738 H   0  0  0  0  0  0  0  0  0  0  0  0
   -2.2918   -0.2251   -1.5221 H   0  0  0  0  0  0  0  0  0  0  0  0
    1.2837   -1.0586    0.6121 H   0  0  0  0  0  0  0  0  0  0  0  0
    1.1128    0.7048    0.8551 H   0  0  0  0  0  0  0  0  0  0  0  0
   -4.4269    0.6281   -0.5825 H   0  0  0  0  0  0  0  0  0  0  0  0
   -3.7769    0.5350    1.0540 H   0  0  0  0  0  0  0  0  0  0  0  0
    4.7873    1.4320    0.8944 H   0  0  0  0  0  0  0  0  0  0  0  0
    3.2077    1.0352    1.5636 H   0  0  0  0  0  0  0  0  0  0  0  0
    3.3485    2.2389    0.2631 H   0  0  0  0  0  0  0  0  0  0  0  0
    3.4819   -1.4104    1.0750 H   0  0  0  0  0  0  0  0  0  0  0  0
    5.1017   -1.1262    0.4344 H   0  0  0  0  0  0  0  0  0  0  0  0
    3.9005   -1.9631   -0.5579 H   0  0  0  0  0  0  0  0  0  0  0  0
   -3.4005   -1.9924    0.7270 H   0  0  0  0  0  0  0  0  0  0  0  0
   -4.0398   -1.8712   -0.9223 H   0  0  0  0  0  0  0  0  0  0  0  0
   -2.4281   -2.5515   -0.6385 H   0  0  0  0  0  0  0  0  0  0  0  0
   -2.0621    2.2510    0.5087 H   0  0  0  0  0  0  0  0  0  0  0  0
   -3.6863    2.8431    0.1420 H   0  0  0  0  0  0  0  0  0  0  0  0
   -2.6312    2.2989   -1.1725 H   0  0  0  0  0  0  0  0  0  0  0  0
  1  6  1  0  0  0  0
  1 10  1  0  0  0  0
  2 10  2  0  0  0  0
  3  4  1  0  0  0  0
  3  8  1  0  0  0  0
  3  9  1  0  0  0  0
  3 13  1  0  0  0  0
  4  6  1  0  0  0  0
  4 14  1  0  0  0  0
  4 15  1  0  0  0  0
  5  7  1  0  0  0  0
  5 10  1  0  0  0  0
  5 11  1  0  0  0  0
  5 16  1  0  0  0  0
  6 17  1  0  0  0  0
  6 18  1  0  0  0  0
  7 12  1  0  0  0  0
  7 19  1  0  0  0  0
  7 20  1  0  0  0  0
  8 21  1  0  0  0  0
  8 22  1  0  0  0  0
  8 23  1  0  0  0  0
  9 24  1  0  0  0  0
  9 25  1  0  0  0  0
  9 26  1  0  0  0  0
 11 27  1  0  0  0  0
 11 28  1  0  0  0  0
 11 29  1  0  0  0  0
 12 30  1  0  0  0  0
 12 31  1  0  0  0  0
 12 32  1  0  0  0  0
M  END
> <PUBCHEM_COMPOUND_CID>
520326

> <PUBCHEM_CONFORMER_RMSD>
0.6

> <PUBCHEM_CONFORMER_DIVERSEORDER>
1
234
242
6
258
123
238
10
80
193
134
70
85
118
243
257
216
125
260
120
29
189
42
175
24
132
95
208
131
122
245
138
5
214
265
92
187
230
46
195
250
194
239
19
240
152
9
218
31
58
101
209
115
69
18
253
232
164
169
124
90
54
49
229
22
262
119
137
182
166
52
65
47
87
211
117
154
227
247
249
51
246
183
43
72
103
237
114
59
7
53
13
263
163
135
111
223
170
203
99
32
68
41
88
141
71
196
148
38
184
259
145
206
23
127
231
107
192
221
130
142
254
126
207
8
39
143
225
50
11
150
139
167
173
251
228
30
106
48
212
3
252
157
86
149
202
84
190
17
121
181
57
89
264
76
40
14
178
205
77
56
168
220
2
180
160
104
174
198
27
16
215
55
36
233
201
21
78
186
63
151
37
83
185
165
79
96
12
110
171
34
224
188
64
241
156
25
62
248
244
191
91
60
140
15
217
235
105
112
172
176
261
204
73
75
26
236
97
113
128
197
129
219
82
33
158
74
108
155
226
45
162
179
136
102
100
66
93
147
20
200
159
109
210
222
28
144
266
61
133
255
44
94
4
177
146
161
256
67
213
98
116
81
199
153
35

> <PUBCHEM_MMFF94_PARTIAL_CHARGES>
5
1 -0.43
10 0.66
2 -0.57
5 0.06
6 0.28

> <PUBCHEM_EFFECTIVE_ROTOR_COUNT>
6

> <PUBCHEM_PHARMACOPHORE_FEATURES>
4
1 11 hydrophobe
1 12 hydrophobe
1 2 acceptor
3 3 8 9 hydrophobe

> <PUBCHEM_HEAVY_ATOM_COUNT>
12

> <PUBCHEM_ATOM_DEF_STEREO_COUNT>
0

> <PUBCHEM_ATOM_UDEF_STEREO_COUNT>
1

> <PUBCHEM_BOND_DEF_STEREO_COUNT>
0

> <PUBCHEM_BOND_UDEF_STEREO_COUNT>
0

> <PUBCHEM_ISOTOPIC_ATOM_COUNT>
0

> <PUBCHEM_COMPONENT_COUNT>
1

> <PUBCHEM_CACTVS_TAUTO_COUNT>
1

> <PUBCHEM_CONFORMER_ID>
0007F08600000001

> <PUBCHEM_MMFF94_ENERGY>
10.7793

> <PUBCHEM_FEATURE_SELFOVERLAP>
20.297

> <PUBCHEM_SHAPE_FINGERPRINT>
12162725 195 18187931715364469972
12932764 1 18342189881226961638
14004511 7 18187366489025406580
14144814 61 16443342083239562684
14325111 11 18412545426964908870
1741750 31 18199753540301770665
18186145 218 17988936573684041958
190213 19 17530684320498169780
1986462 14 18409730664170449775
20279233 1 16988846068240510511
20645477 56 18341338795024301133
20645477 70 16773524265519766270
21339142 149 18187367666310799619
22169311 21 17917712383542738102
22485316 2 18412260645037511982
22959321 105 17775281715741402007
2306618 200 18059863839730323305
23380061 127 18408882958069906855
23402539 116 18413100663731885023
23557571 272 18202013147912403997
23559900 14 18130785608466391098
3248919 1 17530971323282504182
42627469 27 17676212338082005441
573450 72 18336254678584157186
58051976 100 18412265008313042790

> <PUBCHEM_SHAPE_MULTIPOLES>
235.22
8.36
1.61
0.94
4.35
0.34
0.16
0.56
-0.15
-1.2
0
0.11
-0.04
0.13

> <PUBCHEM_SHAPE_SELFOVERLAP>
433.626

> <PUBCHEM_SHAPE_VOLUME>
149.9

> <PUBCHEM_COORDINATE_TYPE>
2
5
10

$$$$
