520395
  -OEChem-11232109273D

 17 17  0     0  0  0  0  0  0999 V2000
   -2.2018    0.2643   -0.0004 O   0  0  0  0  0  0  0  0  0  0  0  0
   -0.1372   -0.8015    0.0006 N   0  0  0  0  0  0  0  0  0  0  0  0
    1.1225    1.7044   -0.0001 N   0  0  0  0  0  0  0  0  0  0  0  0
    1.2048   -0.6776    0.0002 C   0  0  0  0  0  0  0  0  0  0  0  0
   -0.8383    0.3497    0.0003 C   0  0  0  0  0  0  0  0  0  0  0  0
    2.0115   -1.9290   -0.0004 C   0  0  0  0  0  0  0  0  0  0  0  0
    1.8236    0.5532   -0.0001 C   0  0  0  0  0  0  0  0  0  0  0  0
   -0.2196    1.5805    0.0000 C   0  0  0  0  0  0  0  0  0  0  0  0
   -2.7655   -1.0439   -0.0001 C   0  0  0  0  0  0  0  0  0  0  0  0
    2.6445   -1.9741   -0.8923 H   0  0  0  0  0  0  0  0  0  0  0  0
    2.6458   -1.9740    0.8906 H   0  0  0  0  0  0  0  0  0  0  0  0
    1.3653   -2.8130    0.0001 H   0  0  0  0  0  0  0  0  0  0  0  0
    2.9019    0.6611   -0.0004 H   0  0  0  0  0  0  0  0  0  0  0  0
   -0.7792    2.5083   -0.0004 H   0  0  0  0  0  0  0  0  0  0  0  0
   -2.4764   -1.5947   -0.9014 H   0  0  0  0  0  0  0  0  0  0  0  0
   -3.8546   -0.9412   -0.0006 H   0  0  0  0  0  0  0  0  0  0  0  0
   -2.4773   -1.5939    0.9019 H   0  0  0  0  0  0  0  0  0  0  0  0
  1  5  1  0  0  0  0
  1  9  1  0  0  0  0
  2  4  1  0  0  0  0
  2  5  2  0  0  0  0
  3  7  1  0  0  0  0
  3  8  2  0  0  0  0
  4  6  1  0  0  0  0
  4  7  2  0  0  0  0
  5  8  1  0  0  0  0
  6 10  1  0  0  0  0
  6 11  1  0  0  0  0
  6 12  1  0  0  0  0
  7 13  1  0  0  0  0
  8 14  1  0  0  0  0
  9 15  1  0  0  0  0
  9 16  1  0  0  0  0
  9 17  1  0  0  0  0
M  END
> <PUBCHEM_COMPOUND_CID>
520395

> <PUBCHEM_CONFORMER_RMSD>
0.4

> <PUBCHEM_CONFORMER_DIVERSEORDER>
1
2

> <PUBCHEM_MMFF94_PARTIAL_CHARGES>
11
1 -0.36
13 0.15
14 0.15
2 -0.62
3 -0.62
4 0.17
5 0.39
6 0.14
7 0.16
8 0.16
9 0.28

> <PUBCHEM_EFFECTIVE_ROTOR_COUNT>
1

> <PUBCHEM_PHARMACOPHORE_FEATURES>
2
1 3 acceptor
6 2 3 4 5 7 8 rings

> <PUBCHEM_HEAVY_ATOM_COUNT>
9

> <PUBCHEM_ATOM_DEF_STEREO_COUNT>
0

> <PUBCHEM_ATOM_UDEF_STEREO_COUNT>
0

> <PUBCHEM_BOND_DEF_STEREO_COUNT>
0

> <PUBCHEM_BOND_UDEF_STEREO_COUNT>
0

> <PUBCHEM_ISOTOPIC_ATOM_COUNT>
0

> <PUBCHEM_COMPONENT_COUNT>
1

> <PUBCHEM_CACTVS_TAUTO_COUNT>
1

> <PUBCHEM_CONFORMER_ID>
0007F0CB00000001

> <PUBCHEM_MMFF94_ENERGY>
26.2106

> <PUBCHEM_FEATURE_SELFOVERLAP>
10.148

> <PUBCHEM_SHAPE_FINGERPRINT>
14128692 85 18339088077304913230
16945 1 18338517555102570341
18185500 45 18341610434040405847
20871998 22 18198912417774474766
21040471 1 17689999359201313696
23552423 10 18260836938430737046
241688 4 18192995915693018496
2748010 2 18338792295633793116
29004967 10 18409167727028018761

> <PUBCHEM_SHAPE_MULTIPOLES>
169.38
3.22
1.91
0.59
1.7
0.04
0
-1.48
0
-0.75
0
-0.02
-0.01
0

> <PUBCHEM_SHAPE_SELFOVERLAP>
344.106

> <PUBCHEM_SHAPE_VOLUME>
99.5

> <PUBCHEM_COORDINATE_TYPE>
2
5
10

$$$$
