520420
  -OEChem-11232109123D

 20 19  0     0  0  0  0  0  0999 V2000
    1.1463   -1.3603    0.0040 O   0  0  0  0  0  0  0  0  0  0  0  0
   -1.4097   -0.2321   -0.0307 C   0  0  0  0  0  0  0  0  0  0  0  0
   -2.6958    0.5923    0.0049 C   0  0  0  0  0  0  0  0  0  0  0  0
   -0.1730    0.6648   -0.0021 C   0  0  0  0  0  0  0  0  0  0  0  0
   -3.9283   -0.2979    0.0151 C   0  0  0  0  0  0  0  0  0  0  0  0
    1.1198   -0.1326    0.0020 C   0  0  0  0  0  0  0  0  0  0  0  0
    2.3707    0.6771    0.0017 C   0  0  0  0  0  0  0  0  0  0  0  0
    3.5700    0.0888    0.0050 C   0  0  0  0  0  0  0  0  0  0  0  0
   -1.3936   -0.8563   -0.9329 H   0  0  0  0  0  0  0  0  0  0  0  0
   -1.3881   -0.9165    0.8266 H   0  0  0  0  0  0  0  0  0  0  0  0
   -2.7367    1.2558   -0.8668 H   0  0  0  0  0  0  0  0  0  0  0  0
   -2.7064    1.2282    0.8977 H   0  0  0  0  0  0  0  0  0  0  0  0
   -0.1896    1.2888    0.8990 H   0  0  0  0  0  0  0  0  0  0  0  0
   -0.1715    1.3181   -0.8822 H   0  0  0  0  0  0  0  0  0  0  0  0
   -3.9341   -0.9501    0.8942 H   0  0  0  0  0  0  0  0  0  0  0  0
   -4.8365    0.3124    0.0390 H   0  0  0  0  0  0  0  0  0  0  0  0
   -3.9652   -0.9270   -0.8801 H   0  0  0  0  0  0  0  0  0  0  0  0
    2.2809    1.7574   -0.0007 H   0  0  0  0  0  0  0  0  0  0  0  0
    4.4708    0.6936    0.0049 H   0  0  0  0  0  0  0  0  0  0  0  0
    3.6916   -0.9887    0.0078 H   0  0  0  0  0  0  0  0  0  0  0  0
  1  6  2  0  0  0  0
  2  3  1  0  0  0  0
  2  4  1  0  0  0  0
  2  9  1  0  0  0  0
  2 10  1  0  0  0  0
  3  5  1  0  0  0  0
  3 11  1  0  0  0  0
  3 12  1  0  0  0  0
  4  6  1  0  0  0  0
  4 13  1  0  0  0  0
  4 14  1  0  0  0  0
  5 15  1  0  0  0  0
  5 16  1  0  0  0  0
  5 17  1  0  0  0  0
  6  7  1  0  0  0  0
  7  8  2  0  0  0  0
  7 18  1  0  0  0  0
  8 19  1  0  0  0  0
  8 20  1  0  0  0  0
M  END
> <PUBCHEM_COMPOUND_CID>
520420

> <PUBCHEM_CONFORMER_RMSD>
0.6

> <PUBCHEM_CONFORMER_DIVERSEORDER>
1
45
27
38
4
42
26
41
28
29
44
10
39
12
5
32
43
9
40
36
17
21
33
24
22
19
23
8
14
30
2
35
25
37
7
13
3
31
6
20
11
34
16
18
15

> <PUBCHEM_MMFF94_PARTIAL_CHARGES>
8
1 -0.57
18 0.15
19 0.15
20 0.15
4 0.06
6 0.49
7 -0.14
8 -0.3

> <PUBCHEM_EFFECTIVE_ROTOR_COUNT>
4

> <PUBCHEM_PHARMACOPHORE_FEATURES>
3
1 1 acceptor
1 5 hydrophobe
1 8 hydrophobe

> <PUBCHEM_HEAVY_ATOM_COUNT>
8

> <PUBCHEM_ATOM_DEF_STEREO_COUNT>
0

> <PUBCHEM_ATOM_UDEF_STEREO_COUNT>
0

> <PUBCHEM_BOND_DEF_STEREO_COUNT>
0

> <PUBCHEM_BOND_UDEF_STEREO_COUNT>
0

> <PUBCHEM_ISOTOPIC_ATOM_COUNT>
0

> <PUBCHEM_COMPONENT_COUNT>
1

> <PUBCHEM_CACTVS_TAUTO_COUNT>
2

> <PUBCHEM_CONFORMER_ID>
0007F0E400000001

> <PUBCHEM_MMFF94_ENERGY>
4.0693

> <PUBCHEM_FEATURE_SELFOVERLAP>
15.223

> <PUBCHEM_SHAPE_FINGERPRINT>
10219947 1 17822012016700147028
11062470 55 13551189995829797588
12932764 1 16845278415860167337
14325111 11 18410575084668386148
14390081 3 18343580737487154417
190213 19 17561366179628685025
20201158 50 18260550021904542307
20645477 70 18266733594038096135
20719005 15 18410575097890891659
23235685 24 18408317800213086466
29004967 10 18187370912894592513
3248919 1 16733278867236054477
5460574 1 9295288343938762821

> <PUBCHEM_SHAPE_MULTIPOLES>
158.77
6.47
0.96
0.61
2.11
0.14
0
-0.11
0.04
-0.15
0
0.01
-0.02
0

> <PUBCHEM_SHAPE_SELFOVERLAP>
286.826

> <PUBCHEM_SHAPE_VOLUME>
102

> <PUBCHEM_COORDINATE_TYPE>
2
5
10

$$$$
