520911
  -OEChem-11232109133D

 16 16  0     0  0  0  0  0  0999 V2000
   -0.2579    0.7820   -0.2402 O   0  0  0  0  0  0  0  0  0  0  0  0
    2.6975    0.5578    0.6908 O   0  0  0  0  0  0  0  0  0  0  0  0
    0.6885   -0.1927   -0.2611 C   0  0  0  0  0  0  0  0  0  0  0  0
   -1.4388    0.1712    0.0410 C   0  0  0  0  0  0  0  0  0  0  0  0
    0.1249   -1.4192    0.0039 C   0  0  0  0  0  0  0  0  0  0  0  0
   -1.2567   -1.1828    0.2001 C   0  0  0  0  0  0  0  0  0  0  0  0
    2.0626    0.2414   -0.5497 C   0  0  0  0  0  0  0  0  0  0  0  0
   -2.6200    1.0424    0.1152 C   0  0  0  0  0  0  0  0  0  0  0  0
    0.6429   -2.3665    0.0505 H   0  0  0  0  0  0  0  0  0  0  0  0
   -2.0218   -1.9109    0.4290 H   0  0  0  0  0  0  0  0  0  0  0  0
    2.6363   -0.5561   -1.0309 H   0  0  0  0  0  0  0  0  0  0  0  0
    2.0908    1.1239   -1.1959 H   0  0  0  0  0  0  0  0  0  0  0  0
   -2.4916    1.7985    0.8959 H   0  0  0  0  0  0  0  0  0  0  0  0
   -2.7799    1.5554   -0.8382 H   0  0  0  0  0  0  0  0  0  0  0  0
   -3.5219    0.4668    0.3459 H   0  0  0  0  0  0  0  0  0  0  0  0
    2.2447    1.3347    1.0620 H   0  0  0  0  0  0  0  0  0  0  0  0
  1  3  1  0  0  0  0
  1  4  1  0  0  0  0
  2  7  1  0  0  0  0
  2 16  1  0  0  0  0
  3  5  2  0  0  0  0
  3  7  1  0  0  0  0
  4  6  2  0  0  0  0
  4  8  1  0  0  0  0
  5  6  1  0  0  0  0
  5  9  1  0  0  0  0
  6 10  1  0  0  0  0
  7 11  1  0  0  0  0
  7 12  1  0  0  0  0
  8 13  1  0  0  0  0
  8 14  1  0  0  0  0
  8 15  1  0  0  0  0
M  END
> <PUBCHEM_COMPOUND_CID>
520911

> <PUBCHEM_CONFORMER_RMSD>
0.4

> <PUBCHEM_CONFORMER_DIVERSEORDER>
1
3
4
2

> <PUBCHEM_MMFF94_PARTIAL_CHARGES>
11
1 -0.28
10 0.15
16 0.4
2 -0.68
3 -0.04
4 -0.04
5 -0.15
6 -0.15
7 0.46
8 0.18
9 0.15

> <PUBCHEM_EFFECTIVE_ROTOR_COUNT>
1

> <PUBCHEM_PHARMACOPHORE_FEATURES>
4
1 1 acceptor
1 2 acceptor
1 2 donor
5 1 3 4 5 6 rings

> <PUBCHEM_HEAVY_ATOM_COUNT>
8

> <PUBCHEM_ATOM_DEF_STEREO_COUNT>
0

> <PUBCHEM_ATOM_UDEF_STEREO_COUNT>
0

> <PUBCHEM_BOND_DEF_STEREO_COUNT>
0

> <PUBCHEM_BOND_UDEF_STEREO_COUNT>
0

> <PUBCHEM_ISOTOPIC_ATOM_COUNT>
0

> <PUBCHEM_COMPONENT_COUNT>
1

> <PUBCHEM_CACTVS_TAUTO_COUNT>
1

> <PUBCHEM_CONFORMER_ID>
0007F2CF00000001

> <PUBCHEM_MMFF94_ENERGY>
2.4321

> <PUBCHEM_FEATURE_SELFOVERLAP>
20.298

> <PUBCHEM_SHAPE_FINGERPRINT>
14390081 3 18201719522557563329
20096714 4 18337961090660490391
20645464 45 18202282545841660400
20653085 51 16486430797038816337
21040471 1 18336554836705359647
23552423 10 18186809097113497054
29004967 10 13767923542006516988
369184 2 18201434826402671522

> <PUBCHEM_SHAPE_MULTIPOLES>
152.9
3.35
1.3
0.7
0.56
0.37
-0.01
-1.42
-0.37
-0.4
-0.05
0.2
-0.03
0.1

> <PUBCHEM_SHAPE_SELFOVERLAP>
311.076

> <PUBCHEM_SHAPE_VOLUME>
91.1

> <PUBCHEM_COORDINATE_TYPE>
2
5
10

$$$$
