521246
  -OEChem-11232108583D

 19 18  0     1  0  0  0  0  0999 V2000
    0.7261    0.8904    0.0555 O   0  0  0  0  0  0  0  0  0  0  0  0
   -0.9812   -0.7951    1.3770 O   0  0  0  0  0  0  0  0  0  0  0  0
    1.2567   -1.2047   -0.7603 O   0  0  0  0  0  0  0  0  0  0  0  0
   -0.6026    0.7654   -0.4252 C   0  0  2  0  0  0  0  0  0  0  0  0
   -1.3457    2.0487   -0.1006 C   0  0  0  0  0  0  0  0  0  0  0  0
   -1.2599   -0.4408    0.2311 C   0  0  0  0  0  0  0  0  0  0  0  0
   -2.2834   -1.1925   -0.5811 C   0  0  0  0  0  0  0  0  0  0  0  0
    1.5639   -0.1734   -0.1783 C   0  0  0  0  0  0  0  0  0  0  0  0
    2.9262    0.1020    0.3820 C   0  0  0  0  0  0  0  0  0  0  0  0
   -0.5728    0.6207   -1.5116 H   0  0  0  0  0  0  0  0  0  0  0  0
   -1.3655    2.2268    0.9806 H   0  0  0  0  0  0  0  0  0  0  0  0
   -2.3797    2.0113   -0.4571 H   0  0  0  0  0  0  0  0  0  0  0  0
   -0.8458    2.9098   -0.5563 H   0  0  0  0  0  0  0  0  0  0  0  0
   -3.1003   -0.5206   -0.8550 H   0  0  0  0  0  0  0  0  0  0  0  0
   -2.6886   -2.0188    0.0094 H   0  0  0  0  0  0  0  0  0  0  0  0
   -1.8110   -1.5984   -1.4789 H   0  0  0  0  0  0  0  0  0  0  0  0
    2.8578    0.2523    1.4623 H   0  0  0  0  0  0  0  0  0  0  0  0
    3.3544    0.9826   -0.1032 H   0  0  0  0  0  0  0  0  0  0  0  0
    3.5780   -0.7548    0.1893 H   0  0  0  0  0  0  0  0  0  0  0  0
  1  4  1  0  0  0  0
  1  8  1  0  0  0  0
  2  6  2  0  0  0  0
  3  8  2  0  0  0  0
  4  5  1  0  0  0  0
  4  6  1  0  0  0  0
  4 10  1  0  0  0  0
  5 11  1  0  0  0  0
  5 12  1  0  0  0  0
  5 13  1  0  0  0  0
  6  7  1  0  0  0  0
  7 14  1  0  0  0  0
  7 15  1  0  0  0  0
  7 16  1  0  0  0  0
  8  9  1  0  0  0  0
  9 17  1  0  0  0  0
  9 18  1  0  0  0  0
  9 19  1  0  0  0  0
M  END
> <PUBCHEM_COMPOUND_CID>
521246

> <PUBCHEM_CONFORMER_RMSD>
0.6

> <PUBCHEM_CONFORMER_DIVERSEORDER>
3
21
11
27
26
18
12
15
6
5
13
14
10
22
25
16
1
9
17
7
24
20
19
28
8
23
2
4

> <PUBCHEM_MMFF94_PARTIAL_CHARGES>
8
1 -0.43
2 -0.57
3 -0.57
4 0.34
6 0.45
7 0.06
8 0.66
9 0.06

> <PUBCHEM_EFFECTIVE_ROTOR_COUNT>
3

> <PUBCHEM_PHARMACOPHORE_FEATURES>
2
1 2 acceptor
1 3 acceptor

> <PUBCHEM_HEAVY_ATOM_COUNT>
9

> <PUBCHEM_ATOM_DEF_STEREO_COUNT>
0

> <PUBCHEM_ATOM_UDEF_STEREO_COUNT>
1

> <PUBCHEM_BOND_DEF_STEREO_COUNT>
0

> <PUBCHEM_BOND_UDEF_STEREO_COUNT>
0

> <PUBCHEM_ISOTOPIC_ATOM_COUNT>
0

> <PUBCHEM_COMPONENT_COUNT>
1

> <PUBCHEM_CACTVS_TAUTO_COUNT>
3

> <PUBCHEM_CONFORMER_ID>
0007F41E00000003

> <PUBCHEM_MMFF94_ENERGY>
10.4535

> <PUBCHEM_FEATURE_SELFOVERLAP>
10.149

> <PUBCHEM_SHAPE_FINGERPRINT>
12423570 1 14425665532342523157
18185500 45 17984987256528979287
21040471 1 17975137539188253260
21922407 69 17130450057652584066
23552423 10 18188214191316506214
23552449 1 18412820270354170620
24536 1 17895210886564527286
29004967 10 18339646770829660571
5084963 1 17846216700234134718

> <PUBCHEM_SHAPE_MULTIPOLES>
167.61
3.31
1.63
0.89
1.88
0.68
0.18
-0.59
-0.01
-0.97
-0.16
-0.15
-0.23
0.11

> <PUBCHEM_SHAPE_SELFOVERLAP>
315.56

> <PUBCHEM_SHAPE_VOLUME>
104.3

> <PUBCHEM_COORDINATE_TYPE>
2
5
10

$$$$
