521380
  -OEChem-11232108493D

 39 40  0     1  0  0  0  0  0999 V2000
    0.2250    0.3383   -0.5841 C   0  0  1  0  0  0  0  0  0  0  0  0
    1.5689   -0.3350   -0.2191 C   0  0  2  0  0  0  0  0  0  0  0  0
   -0.8045   -0.7548   -0.9781 C   0  0  2  0  0  0  0  0  0  0  0  0
   -0.3066    1.2678    0.5361 C   0  0  0  0  0  0  0  0  0  0  0  0
    1.4074   -1.3115    0.9587 C   0  0  0  0  0  0  0  0  0  0  0  0
    2.6848    0.6718    0.0606 C   0  0  0  0  0  0  0  0  0  0  0  0
   -2.1409   -0.0855   -1.3661 C   0  0  0  0  0  0  0  0  0  0  0  0
   -0.8860   -1.8660    0.0647 C   0  0  0  0  0  0  0  0  0  0  0  0
    0.1263   -2.0933    0.9231 C   0  0  0  0  0  0  0  0  0  0  0  0
   -1.7667    1.6205    0.4248 C   0  0  0  0  0  0  0  0  0  0  0  0
   -2.5841    1.0059   -0.4435 C   0  0  0  0  0  0  0  0  0  0  0  0
    4.0073   -0.0498    0.3060 C   0  0  0  0  0  0  0  0  0  0  0  0
    2.8168    1.6594   -1.0958 C   0  0  0  0  0  0  0  0  0  0  0  0
   -2.0899   -2.7656    0.0661 C   0  0  0  0  0  0  0  0  0  0  0  0
   -2.2577    2.6978    1.3467 C   0  0  0  0  0  0  0  0  0  0  0  0
    0.3589    0.9502   -1.4861 H   0  0  0  0  0  0  0  0  0  0  0  0
    1.8683   -0.9327   -1.0942 H   0  0  0  0  0  0  0  0  0  0  0  0
   -0.4407   -1.2500   -1.8914 H   0  0  0  0  0  0  0  0  0  0  0  0
    0.2765    2.1965    0.5244 H   0  0  0  0  0  0  0  0  0  0  0  0
   -0.1542    0.8195    1.5242 H   0  0  0  0  0  0  0  0  0  0  0  0
    1.4596   -0.7840    1.9187 H   0  0  0  0  0  0  0  0  0  0  0  0
    2.2316   -2.0349    0.9490 H   0  0  0  0  0  0  0  0  0  0  0  0
    2.4572    1.2474    0.9667 H   0  0  0  0  0  0  0  0  0  0  0  0
   -2.9421   -0.8256   -1.4600 H   0  0  0  0  0  0  0  0  0  0  0  0
   -2.0340    0.3590   -2.3649 H   0  0  0  0  0  0  0  0  0  0  0  0
    0.0452   -2.9000    1.6478 H   0  0  0  0  0  0  0  0  0  0  0  0
   -3.6275    1.3031   -0.5081 H   0  0  0  0  0  0  0  0  0  0  0  0
    4.2586   -0.7207   -0.5227 H   0  0  0  0  0  0  0  0  0  0  0  0
    4.8265    0.6708    0.4086 H   0  0  0  0  0  0  0  0  0  0  0  0
    3.9893   -0.6344    1.2307 H   0  0  0  0  0  0  0  0  0  0  0  0
    2.9081    1.1430   -2.0575 H   0  0  0  0  0  0  0  0  0  0  0  0
    3.7119    2.2793   -0.9700 H   0  0  0  0  0  0  0  0  0  0  0  0
    1.9729    2.3527   -1.1509 H   0  0  0  0  0  0  0  0  0  0  0  0
   -1.9636   -3.6240    0.7349 H   0  0  0  0  0  0  0  0  0  0  0  0
   -2.2706   -3.1617   -0.9385 H   0  0  0  0  0  0  0  0  0  0  0  0
   -2.9784   -2.2208    0.3997 H   0  0  0  0  0  0  0  0  0  0  0  0
   -2.0900    2.4095    2.3895 H   0  0  0  0  0  0  0  0  0  0  0  0
   -3.3283    2.8919    1.2229 H   0  0  0  0  0  0  0  0  0  0  0  0
   -1.7246    3.6346    1.1545 H   0  0  0  0  0  0  0  0  0  0  0  0
  1  2  1  0  0  0  0
  1  3  1  0  0  0  0
  1  4  1  0  0  0  0
  1 16  1  0  0  0  0
  2  5  1  0  0  0  0
  2  6  1  0  0  0  0
  2 17  1  0  0  0  0
  3  7  1  0  0  0  0
  3  8  1  0  0  0  0
  3 18  1  0  0  0  0
  4 10  1  0  0  0  0
  4 19  1  0  0  0  0
  4 20  1  0  0  0  0
  5  9  1  0  0  0  0
  5 21  1  0  0  0  0
  5 22  1  0  0  0  0
  6 12  1  0  0  0  0
  6 13  1  0  0  0  0
  6 23  1  0  0  0  0
  7 11  1  0  0  0  0
  7 24  1  0  0  0  0
  7 25  1  0  0  0  0
  8  9  2  0  0  0  0
  8 14  1  0  0  0  0
  9 26  1  0  0  0  0
 10 11  2  0  0  0  0
 10 15  1  0  0  0  0
 11 27  1  0  0  0  0
 12 28  1  0  0  0  0
 12 29  1  0  0  0  0
 12 30  1  0  0  0  0
 13 31  1  0  0  0  0
 13 32  1  0  0  0  0
 13 33  1  0  0  0  0
 14 34  1  0  0  0  0
 14 35  1  0  0  0  0
 14 36  1  0  0  0  0
 15 37  1  0  0  0  0
 15 38  1  0  0  0  0
 15 39  1  0  0  0  0
M  END
> <PUBCHEM_COMPOUND_CID>
521380

> <PUBCHEM_CONFORMER_RMSD>
0.6

> <PUBCHEM_CONFORMER_DIVERSEORDER>
3
8
7
4
2
6
5
1

> <PUBCHEM_MMFF94_PARTIAL_CHARGES>
12
10 -0.28
11 -0.29
14 0.14
15 0.14
26 0.15
27 0.15
3 0.14
4 0.14
5 0.14
7 0.14
8 -0.28
9 -0.29

> <PUBCHEM_EFFECTIVE_ROTOR_COUNT>
1.8

> <PUBCHEM_PHARMACOPHORE_FEATURES>
3
3 6 12 13 hydrophobe
6 1 2 3 5 8 9 rings
6 1 3 4 7 10 11 rings

> <PUBCHEM_HEAVY_ATOM_COUNT>
15

> <PUBCHEM_ATOM_DEF_STEREO_COUNT>
0

> <PUBCHEM_ATOM_UDEF_STEREO_COUNT>
3

> <PUBCHEM_BOND_DEF_STEREO_COUNT>
0

> <PUBCHEM_BOND_UDEF_STEREO_COUNT>
0

> <PUBCHEM_ISOTOPIC_ATOM_COUNT>
0

> <PUBCHEM_COMPONENT_COUNT>
1

> <PUBCHEM_CACTVS_TAUTO_COUNT>
1

> <PUBCHEM_CONFORMER_ID>
0007F4A400000003

> <PUBCHEM_MMFF94_ENERGY>
24.131

> <PUBCHEM_FEATURE_SELFOVERLAP>
15.298

> <PUBCHEM_SHAPE_FINGERPRINT>
108231 29 17905323279631001435
11315181 36 18335695088481987064
12423570 1 12643672262602916327
12491281 212 18411985728333262224
12592029 89 17386549281004428643
13024252 1 13045932512855865775
13027679 85 17471865074144692095
13538477 17 18408600383454980708
13764800 53 18410859888318610955
14617773 55 18263370359366117498
14713566 1 18336814368646753622
14761567 1 18048283869028944575
14817 1 11984109721571874355
15490181 8 18268994180885175527
15534591 1 18201441320166506185
15775835 57 18128253385289128096
15906896 17 18272934908000216551
16945 1 18272090525724228356
19837323 101 18059861653159329166
20510252 161 18119526785064239346
20511035 2 14230930714462515071
20588541 1 16966039199256397835
20645476 183 18336254653067450645
21339142 149 18202274806020527216
21501502 16 18189056550657213894
21524375 3 18128257787704420301
22802520 49 18060153028436609910
23236772 104 18343013355312054409
23402539 116 18200579376243940439
23419403 2 17474360940044221047
23557571 272 18126001805098692162
23559900 14 18341886408340429680
2748010 2 17837754991685197397
305870 269 18121219770793522776
353137 74 18410844456554019725
430814 3 18196936565229778465
528862 383 18044089042905295563
53812653 8 18270392798472557601
5706482 22 18339920420217592065
6992083 37 18186518787499679076
7364860 26 17550393933972668001
74978 22 18334015016933437484
81228 2 18191883420294619570

> <PUBCHEM_SHAPE_MULTIPOLES>
308.69
4.69
2.87
1.2
3.88
0.51
0.05
-1.67
0.22
-2.1
-0.94
-0.3
-0.26
-1.06

> <PUBCHEM_SHAPE_SELFOVERLAP>
628.407

> <PUBCHEM_SHAPE_VOLUME>
177.3

> <PUBCHEM_COORDINATE_TYPE>
2
5
10

$$$$
