521504
  -OEChem-11232109493D

 27 27  0     0  0  0  0  0  0999 V2000
   -0.8945   -0.4179   -1.0644 S   0  0  0  0  0  0  0  0  0  0  0  0
    1.5934    0.7155   -0.6908 C   0  0  0  0  0  0  0  0  0  0  0  0
    2.4285   -0.2473    0.1580 C   0  0  0  0  0  0  0  0  0  0  0  0
    0.1395    0.6859   -0.2918 C   0  0  0  0  0  0  0  0  0  0  0  0
    3.9067   -0.1867   -0.2271 C   0  0  0  0  0  0  0  0  0  0  0  0
   -2.2233    0.1324   -0.1352 C   0  0  0  0  0  0  0  0  0  0  0  0
   -0.4787    1.4566    0.6426 C   0  0  0  0  0  0  0  0  0  0  0  0
   -3.5557   -0.4769   -0.3381 C   0  0  0  0  0  0  0  0  0  0  0  0
   -1.8636    1.1353    0.7377 C   0  0  0  0  0  0  0  0  0  0  0  0
    4.7468   -1.1110    0.6396 C   0  0  0  0  0  0  0  0  0  0  0  0
   -3.7992   -1.6860    0.5694 C   0  0  0  0  0  0  0  0  0  0  0  0
    1.7047    0.4723   -1.7551 H   0  0  0  0  0  0  0  0  0  0  0  0
    1.9732    1.7380   -0.5677 H   0  0  0  0  0  0  0  0  0  0  0  0
    2.0600   -1.2736    0.0354 H   0  0  0  0  0  0  0  0  0  0  0  0
    2.3160    0.0030    1.2208 H   0  0  0  0  0  0  0  0  0  0  0  0
    4.0287   -0.4684   -1.2794 H   0  0  0  0  0  0  0  0  0  0  0  0
    4.2779    0.8393   -0.1204 H   0  0  0  0  0  0  0  0  0  0  0  0
    0.0165    2.2137    1.2367 H   0  0  0  0  0  0  0  0  0  0  0  0
   -4.3326    0.2716   -0.1370 H   0  0  0  0  0  0  0  0  0  0  0  0
   -3.6937   -0.7806   -1.3832 H   0  0  0  0  0  0  0  0  0  0  0  0
   -2.5570    1.6182    1.4145 H   0  0  0  0  0  0  0  0  0  0  0  0
    4.4215   -2.1508    0.5338 H   0  0  0  0  0  0  0  0  0  0  0  0
    4.6729   -0.8333    1.6959 H   0  0  0  0  0  0  0  0  0  0  0  0
    5.7996   -1.0528    0.3460 H   0  0  0  0  0  0  0  0  0  0  0  0
   -3.0731   -2.4818    0.3723 H   0  0  0  0  0  0  0  0  0  0  0  0
   -4.8022   -2.0897    0.3990 H   0  0  0  0  0  0  0  0  0  0  0  0
   -3.7174   -1.4083    1.6258 H   0  0  0  0  0  0  0  0  0  0  0  0
  1  4  1  0  0  0  0
  1  6  1  0  0  0  0
  2  3  1  0  0  0  0
  2  4  1  0  0  0  0
  2 12  1  0  0  0  0
  2 13  1  0  0  0  0
  3  5  1  0  0  0  0
  3 14  1  0  0  0  0
  3 15  1  0  0  0  0
  4  7  2  0  0  0  0
  5 10  1  0  0  0  0
  5 16  1  0  0  0  0
  5 17  1  0  0  0  0
  6  8  1  0  0  0  0
  6  9  2  0  0  0  0
  7  9  1  0  0  0  0
  7 18  1  0  0  0  0
  8 11  1  0  0  0  0
  8 19  1  0  0  0  0
  8 20  1  0  0  0  0
  9 21  1  0  0  0  0
 10 22  1  0  0  0  0
 10 23  1  0  0  0  0
 10 24  1  0  0  0  0
 11 25  1  0  0  0  0
 11 26  1  0  0  0  0
 11 27  1  0  0  0  0
M  END
> <PUBCHEM_COMPOUND_CID>
521504

> <PUBCHEM_CONFORMER_RMSD>
0.6

> <PUBCHEM_CONFORMER_DIVERSEORDER>
1
21
20
41
30
36
28
40
14
37
34
15
31
29
24
38
5
12
22
42
25
9
33
16
32
17
13
39
6
19
23
43
10
18
8
26
3
2
44
27
7
4
35
11

> <PUBCHEM_MMFF94_PARTIAL_CHARGES>
9
1 -0.08
18 0.15
2 0.18
21 0.15
4 -0.14
6 -0.14
7 -0.15
8 0.18
9 -0.15

> <PUBCHEM_EFFECTIVE_ROTOR_COUNT>
4

> <PUBCHEM_PHARMACOPHORE_FEATURES>
3
1 10 hydrophobe
1 11 hydrophobe
5 1 4 6 7 9 rings

> <PUBCHEM_HEAVY_ATOM_COUNT>
11

> <PUBCHEM_ATOM_DEF_STEREO_COUNT>
0

> <PUBCHEM_ATOM_UDEF_STEREO_COUNT>
0

> <PUBCHEM_BOND_DEF_STEREO_COUNT>
0

> <PUBCHEM_BOND_UDEF_STEREO_COUNT>
0

> <PUBCHEM_ISOTOPIC_ATOM_COUNT>
0

> <PUBCHEM_COMPONENT_COUNT>
1

> <PUBCHEM_CACTVS_TAUTO_COUNT>
1

> <PUBCHEM_CONFORMER_ID>
0007F52000000001

> <PUBCHEM_MMFF94_ENERGY>
2.2132

> <PUBCHEM_FEATURE_SELFOVERLAP>
15.223

> <PUBCHEM_SHAPE_FINGERPRINT>
10465860 250 18343581845757391913
10726558 24 11891326534923694601
10857977 72 17632581552160328837
11127187 94 14273749446627331545
11132069 177 16773797004227054181
11543360 7 16950852512735962574
11769659 78 18261393407468438751
12251169 10 16988839501551928188
124424 183 18341890810280864437
13690532 89 18187364333141890442
14252887 29 17489317381873794230
14911166 2 13190337989350167679
14943859 89 9583518719911100708
14993402 34 11530480051634753087
177051 138 18411139143055731254
18186145 218 13334737959363957151
19422 9 18335989696682594700
200 152 17312820463989538504
20112054 13 12679457603985661578
20645464 45 15913326879504816084
20645476 183 8574424314069789385
20645477 70 13407067051665803408
20671657 53 18041001760352187932
20871998 184 17775005652439458125
20871999 31 12180139703962312721
21061003 4 17203889673656521129
21293036 1 12684807831739931205
21501925 9 18272932738925752332
22485316 2 17968092010711792838
22959321 94 18343861143212304150
23402539 116 17417799626617831597
23402655 69 11891873061782207363
4028521 119 10737285740570531654
76465 3 18198337558467643871

> <PUBCHEM_SHAPE_MULTIPOLES>
230.22
8.04
1.43
0.96
6.27
0.08
0.07
4.7
-1.53
-0.73
-0.36
-0.1
0.01
-0.29

> <PUBCHEM_SHAPE_SELFOVERLAP>
438.04

> <PUBCHEM_SHAPE_VOLUME>
143.2

> <PUBCHEM_COORDINATE_TYPE>
2
5
10

$$$$
