521869
  -OEChem-11232109263D

 14 13  0     0  0  0  0  0  0999 V2000
    1.3694    0.9821   -0.0029 S   0  0  0  0  0  0  0  0  0  0  0  0
   -0.0133   -1.2645    0.0042 O   0  0  0  0  0  0  0  0  0  0  0  0
   -1.3636    0.7503    0.0077 C   0  0  0  0  0  0  0  0  0  0  0  0
   -2.5865   -0.1515   -0.0101 C   0  0  0  0  0  0  0  0  0  0  0  0
   -0.0718   -0.0412    0.0052 C   0  0  0  0  0  0  0  0  0  0  0  0
    2.6658   -0.2752   -0.0041 C   0  0  0  0  0  0  0  0  0  0  0  0
   -1.3929    1.3771    0.9058 H   0  0  0  0  0  0  0  0  0  0  0  0
   -1.3846    1.3985   -0.8754 H   0  0  0  0  0  0  0  0  0  0  0  0
   -2.6051   -0.8062    0.8676 H   0  0  0  0  0  0  0  0  0  0  0  0
   -2.5940   -0.7863   -0.9023 H   0  0  0  0  0  0  0  0  0  0  0  0
   -3.5020    0.4479   -0.0090 H   0  0  0  0  0  0  0  0  0  0  0  0
    3.6434    0.2141   -0.0084 H   0  0  0  0  0  0  0  0  0  0  0  0
    2.5884   -0.9043   -0.8949 H   0  0  0  0  0  0  0  0  0  0  0  0
    2.5942   -0.9001    0.8901 H   0  0  0  0  0  0  0  0  0  0  0  0
  1  5  1  0  0  0  0
  1  6  1  0  0  0  0
  2  5  2  0  0  0  0
  3  4  1  0  0  0  0
  3  5  1  0  0  0  0
  3  7  1  0  0  0  0
  3  8  1  0  0  0  0
  4  9  1  0  0  0  0
  4 10  1  0  0  0  0
  4 11  1  0  0  0  0
  6 12  1  0  0  0  0
  6 13  1  0  0  0  0
  6 14  1  0  0  0  0
M  END
> <PUBCHEM_COMPOUND_CID>
521869

> <PUBCHEM_CONFORMER_RMSD>
0.4

> <PUBCHEM_CONFORMER_DIVERSEORDER>
1
15
14
3
12
19
11
10
21
5
18
6
9
20
2
13
7
17
8
16
4

> <PUBCHEM_MMFF94_PARTIAL_CHARGES>
5
1 -0.37
2 -0.57
3 0.06
5 0.65
6 0.23

> <PUBCHEM_EFFECTIVE_ROTOR_COUNT>
2

> <PUBCHEM_PHARMACOPHORE_FEATURES>
2
1 4 hydrophobe
1 6 hydrophobe

> <PUBCHEM_HEAVY_ATOM_COUNT>
6

> <PUBCHEM_ATOM_DEF_STEREO_COUNT>
0

> <PUBCHEM_ATOM_UDEF_STEREO_COUNT>
0

> <PUBCHEM_BOND_DEF_STEREO_COUNT>
0

> <PUBCHEM_BOND_UDEF_STEREO_COUNT>
0

> <PUBCHEM_ISOTOPIC_ATOM_COUNT>
0

> <PUBCHEM_COMPONENT_COUNT>
1

> <PUBCHEM_CACTVS_TAUTO_COUNT>
1

> <PUBCHEM_CONFORMER_ID>
0007F68D00000001

> <PUBCHEM_MMFF94_ENERGY>
2.3437

> <PUBCHEM_FEATURE_SELFOVERLAP>
10.149

> <PUBCHEM_SHAPE_FINGERPRINT>
14325111 11 18410575101864235489
16714656 1 18407760347844307772
20096714 4 18410011065389589848
21040471 1 18338516447043186496
23552423 10 18116713108975640150
29004967 10 18412268311147810600
5460574 1 9223232948739493600

> <PUBCHEM_SHAPE_MULTIPOLES>
121.46
3.65
1.11
0.62
0.02
0.03
0
0.14
0.01
0.15
0
0.02
-0.03
0

> <PUBCHEM_SHAPE_SELFOVERLAP>
202.122

> <PUBCHEM_SHAPE_VOLUME>
84.4

> <PUBCHEM_COORDINATE_TYPE>
2
5
10

$$$$
