521903
  -OEChem-11232108493D

 42 44  0     1  0  0  0  0  0999 V2000
    1.4161    0.2748    2.0227 O   0  0  0  0  0  0  0  0  0  0  0  0
   -0.1257   -1.0396    0.6282 C   0  0  1  0  0  0  0  0  0  0  0  0
    0.5185    0.3736    0.9029 C   0  0  2  0  0  0  0  0  0  0  0  0
   -1.2015   -0.8170   -0.4834 C   0  0  2  0  0  0  0  0  0  0  0  0
    1.3782    0.8054   -0.3774 C   0  0  0  0  0  0  0  0  0  0  0  0
    1.0116   -0.1586   -1.5630 C   0  0  2  0  0  0  0  0  0  0  0  0
   -0.5162   -0.2409   -1.7520 C   0  0  0  0  0  0  0  0  0  0  0  0
    0.9431   -2.0316    0.0860 C   0  0  0  0  0  0  0  0  0  0  0  0
    1.4849   -1.5880   -1.2693 C   0  0  0  0  0  0  0  0  0  0  0  0
   -2.3562    0.0788    0.0213 C   0  0  1  0  0  0  0  0  0  0  0  0
   -0.5867    1.3776    1.3460 C   0  0  0  0  0  0  0  0  0  0  0  0
   -1.8472    1.4495    0.4809 C   0  0  0  0  0  0  0  0  0  0  0  0
   -0.7232   -1.6992    1.8910 C   0  0  0  0  0  0  0  0  0  0  0  0
    1.1745    2.2708   -0.8289 C   0  0  0  0  0  0  0  0  0  0  0  0
    2.9087    0.7148   -0.0954 C   0  0  0  0  0  0  0  0  0  0  0  0
   -3.4789    0.2295   -1.0097 C   0  0  0  0  0  0  0  0  0  0  0  0
   -1.6312   -1.7935   -0.7489 H   0  0  0  0  0  0  0  0  0  0  0  0
    1.4743    0.1873   -2.4956 H   0  0  0  0  0  0  0  0  0  0  0  0
   -0.9077    0.7385   -2.0375 H   0  0  0  0  0  0  0  0  0  0  0  0
   -0.7450   -0.8980   -2.6017 H   0  0  0  0  0  0  0  0  0  0  0  0
    0.5172   -3.0381   -0.0172 H   0  0  0  0  0  0  0  0  0  0  0  0
    1.7694   -2.1260    0.8016 H   0  0  0  0  0  0  0  0  0  0  0  0
    2.5768   -1.6693   -1.2926 H   0  0  0  0  0  0  0  0  0  0  0  0
    1.1260   -2.2695   -2.0515 H   0  0  0  0  0  0  0  0  0  0  0  0
   -2.8172   -0.4125    0.8869 H   0  0  0  0  0  0  0  0  0  0  0  0
   -0.1649    2.3818    1.4716 H   0  0  0  0  0  0  0  0  0  0  0  0
   -0.9090    1.1186    2.3641 H   0  0  0  0  0  0  0  0  0  0  0  0
   -2.6369    1.9520    1.0550 H   0  0  0  0  0  0  0  0  0  0  0  0
   -1.6776    2.0965   -0.3830 H   0  0  0  0  0  0  0  0  0  0  0  0
   -1.4057   -1.0444    2.4379 H   0  0  0  0  0  0  0  0  0  0  0  0
   -1.2814   -2.6048    1.6266 H   0  0  0  0  0  0  0  0  0  0  0  0
    0.0639   -1.9989    2.5923 H   0  0  0  0  0  0  0  0  0  0  0  0
    1.8428    2.5132   -1.6648 H   0  0  0  0  0  0  0  0  0  0  0  0
    0.1671    2.4820   -1.1836 H   0  0  0  0  0  0  0  0  0  0  0  0
    1.4085    2.9735   -0.0219 H   0  0  0  0  0  0  0  0  0  0  0  0
    3.2097   -0.2484    0.3267 H   0  0  0  0  0  0  0  0  0  0  0  0
    3.4857    0.8631   -1.0159 H   0  0  0  0  0  0  0  0  0  0  0  0
    3.2243    1.4884    0.6149 H   0  0  0  0  0  0  0  0  0  0  0  0
    0.9033    0.0677    2.8212 H   0  0  0  0  0  0  0  0  0  0  0  0
   -3.1562    0.7770   -1.9001 H   0  0  0  0  0  0  0  0  0  0  0  0
   -3.8452   -0.7520   -1.3286 H   0  0  0  0  0  0  0  0  0  0  0  0
   -4.3239    0.7754   -0.5760 H   0  0  0  0  0  0  0  0  0  0  0  0
  1  3  1  0  0  0  0
  1 39  1  0  0  0  0
  2  3  1  0  0  0  0
  2  4  1  0  0  0  0
  2  8  1  0  0  0  0
  2 13  1  0  0  0  0
  3  5  1  0  0  0  0
  3 11  1  0  0  0  0
  4  7  1  0  0  0  0
  4 10  1  0  0  0  0
  4 17  1  0  0  0  0
  5  6  1  0  0  0  0
  5 14  1  0  0  0  0
  5 15  1  0  0  0  0
  6  7  1  0  0  0  0
  6  9  1  0  0  0  0
  6 18  1  0  0  0  0
  7 19  1  0  0  0  0
  7 20  1  0  0  0  0
  8  9  1  0  0  0  0
  8 21  1  0  0  0  0
  8 22  1  0  0  0  0
  9 23  1  0  0  0  0
  9 24  1  0  0  0  0
 10 12  1  0  0  0  0
 10 16  1  0  0  0  0
 10 25  1  0  0  0  0
 11 12  1  0  0  0  0
 11 26  1  0  0  0  0
 11 27  1  0  0  0  0
 12 28  1  0  0  0  0
 12 29  1  0  0  0  0
 13 30  1  0  0  0  0
 13 31  1  0  0  0  0
 13 32  1  0  0  0  0
 14 33  1  0  0  0  0
 14 34  1  0  0  0  0
 14 35  1  0  0  0  0
 15 36  1  0  0  0  0
 15 37  1  0  0  0  0
 15 38  1  0  0  0  0
 16 40  1  0  0  0  0
 16 41  1  0  0  0  0
 16 42  1  0  0  0  0
M  END
> <PUBCHEM_COMPOUND_CID>
521903

> <PUBCHEM_CONFORMER_RMSD>
0.6

> <PUBCHEM_CONFORMER_DIVERSEORDER>
1
6
7
4
5
3
2
8

> <PUBCHEM_MMFF94_PARTIAL_CHARGES>
3
1 -0.68
3 0.28
39 0.4

> <PUBCHEM_EFFECTIVE_ROTOR_COUNT>
1.4

> <PUBCHEM_PHARMACOPHORE_FEATURES>
5
1 1 acceptor
1 1 donor
3 5 14 15 hydrophobe
6 2 3 4 10 11 12 rings
8 2 3 4 5 6 7 8 9 rings

> <PUBCHEM_HEAVY_ATOM_COUNT>
16

> <PUBCHEM_ATOM_DEF_STEREO_COUNT>
0

> <PUBCHEM_ATOM_UDEF_STEREO_COUNT>
5

> <PUBCHEM_BOND_DEF_STEREO_COUNT>
0

> <PUBCHEM_BOND_UDEF_STEREO_COUNT>
0

> <PUBCHEM_ISOTOPIC_ATOM_COUNT>
0

> <PUBCHEM_COMPONENT_COUNT>
1

> <PUBCHEM_CACTVS_TAUTO_COUNT>
1

> <PUBCHEM_CONFORMER_ID>
0007F6AF00000001

> <PUBCHEM_MMFF94_ENERGY>
79.6536

> <PUBCHEM_FEATURE_SELFOVERLAP>
25.684

> <PUBCHEM_SHAPE_FINGERPRINT>
10702982 57 17604984991155166848
10863032 1 17677608842392718116
10948715 1 18041274482095936924
12138202 97 18042984227061688670
12326174 3 17531523166123444059
12423570 1 13661231778132925382
12491281 212 18198641955156850636
13024252 1 15873347842345252668
13299463 15 16558761104341243885
141345 1 13898191506179850706
14142880 1 16741980685426182845
144361 1 17845387573645169216
14817 1 13294586779577416883
15557651 10 18121189194863197093
15775835 57 17417821655140965505
15852999 172 18187370947207033466
15881359 60 17769961265011037706
16945 1 18272945924306416180
20511035 2 16692514391842093960
22344851 12 11225719909712989346
22344851 341 18056769727857201234
23419403 2 17830498090176775722
241688 4 17978801111916068128
2748010 2 17979651352269011084
430814 3 18119225492813019332
5084963 1 18343304738651722901
528886 8 18411696625431401868
68250623 7 17986679159936722146

> <PUBCHEM_SHAPE_MULTIPOLES>
323.4
3.24
2.01
1.81
1.51
0.05
0.26
-0.81
-0.83
-0.53
0.22
-0.02
0.27
0.13

> <PUBCHEM_SHAPE_SELFOVERLAP>
685.955

> <PUBCHEM_SHAPE_VOLUME>
178.2

> <PUBCHEM_COORDINATE_TYPE>
2
5
10

$$$$
