522071
  -OEChem-11232108543D

 24 23  0     1  0  0  0  0  0999 V2000
   -3.6005    1.0331    0.0273 S   0  0  0  0  0  0  0  0  0  0  0  0
    0.3681   -0.3074   -0.2424 C   0  0  0  0  0  0  0  0  0  0  0  0
   -0.8611    0.5210    0.1520 C   0  0  0  0  0  0  0  0  0  0  0  0
    1.6631    0.3835    0.1924 C   0  0  0  0  0  0  0  0  0  0  0  0
   -2.1904   -0.0693   -0.3455 C   0  0  1  0  0  0  0  0  0  0  0  0
    2.8921   -0.4153   -0.2412 C   0  0  0  0  0  0  0  0  0  0  0  0
   -2.4523   -1.4296    0.2974 C   0  0  0  0  0  0  0  0  0  0  0  0
    4.1811    0.2839    0.1600 C   0  0  0  0  0  0  0  0  0  0  0  0
    0.3257   -1.2982    0.2224 H   0  0  0  0  0  0  0  0  0  0  0  0
    0.3755   -0.4547   -1.3290 H   0  0  0  0  0  0  0  0  0  0  0  0
   -0.8819    0.6308    1.2444 H   0  0  0  0  0  0  0  0  0  0  0  0
   -0.7433    1.5305   -0.2638 H   0  0  0  0  0  0  0  0  0  0  0  0
    1.6674    0.5060    1.2823 H   0  0  0  0  0  0  0  0  0  0  0  0
    1.7080    1.3881   -0.2459 H   0  0  0  0  0  0  0  0  0  0  0  0
   -2.1552   -0.1865   -1.4341 H   0  0  0  0  0  0  0  0  0  0  0  0
    2.8665   -1.4129    0.2124 H   0  0  0  0  0  0  0  0  0  0  0  0
    2.8828   -0.5529   -1.3287 H   0  0  0  0  0  0  0  0  0  0  0  0
   -3.4281   -1.8299   -0.0018 H   0  0  0  0  0  0  0  0  0  0  0  0
   -1.7079   -2.1673   -0.0181 H   0  0  0  0  0  0  0  0  0  0  0  0
   -2.4272   -1.3757    1.3917 H   0  0  0  0  0  0  0  0  0  0  0  0
    4.2370    0.4105    1.2459 H   0  0  0  0  0  0  0  0  0  0  0  0
    4.2528    1.2721   -0.3056 H   0  0  0  0  0  0  0  0  0  0  0  0
    5.0468   -0.3052   -0.1585 H   0  0  0  0  0  0  0  0  0  0  0  0
   -3.4526    1.0320    1.3605 H   0  0  0  0  0  0  0  0  0  0  0  0
  1  5  1  0  0  0  0
  1 24  1  0  0  0  0
  2  3  1  0  0  0  0
  2  4  1  0  0  0  0
  2  9  1  0  0  0  0
  2 10  1  0  0  0  0
  3  5  1  0  0  0  0
  3 11  1  0  0  0  0
  3 12  1  0  0  0  0
  4  6  1  0  0  0  0
  4 13  1  0  0  0  0
  4 14  1  0  0  0  0
  5  7  1  0  0  0  0
  5 15  1  0  0  0  0
  6  8  1  0  0  0  0
  6 16  1  0  0  0  0
  6 17  1  0  0  0  0
  7 18  1  0  0  0  0
  7 19  1  0  0  0  0
  7 20  1  0  0  0  0
  8 21  1  0  0  0  0
  8 22  1  0  0  0  0
  8 23  1  0  0  0  0
M  END
> <PUBCHEM_COMPOUND_CID>
522071

> <PUBCHEM_CONFORMER_RMSD>
0.6

> <PUBCHEM_CONFORMER_DIVERSEORDER>
1
31
39
50
42
2
17
43
47
7
18
35
26
25
3
48
41
9
20
44
33
34
29
27
10
46
12
24
38
40
23
19
6
11
37
32
49
5
21
45
14
51
8
13
15
4
36
22
28
30
16

> <PUBCHEM_MMFF94_PARTIAL_CHARGES>
3
1 -0.41
24 0.18
5 0.23

> <PUBCHEM_EFFECTIVE_ROTOR_COUNT>
4

> <PUBCHEM_PHARMACOPHORE_FEATURES>
2
1 8 hydrophobe
4 2 3 4 6 hydrophobe

> <PUBCHEM_HEAVY_ATOM_COUNT>
8

> <PUBCHEM_ATOM_DEF_STEREO_COUNT>
0

> <PUBCHEM_ATOM_UDEF_STEREO_COUNT>
1

> <PUBCHEM_BOND_DEF_STEREO_COUNT>
0

> <PUBCHEM_BOND_UDEF_STEREO_COUNT>
0

> <PUBCHEM_ISOTOPIC_ATOM_COUNT>
0

> <PUBCHEM_COMPONENT_COUNT>
1

> <PUBCHEM_CACTVS_TAUTO_COUNT>
1

> <PUBCHEM_CONFORMER_ID>
0007F75700000001

> <PUBCHEM_MMFF94_ENERGY>
2.582

> <PUBCHEM_FEATURE_SELFOVERLAP>
10.149

> <PUBCHEM_SHAPE_FINGERPRINT>
11062470 55 18272650129945735204
12932764 1 17095511911738595908
14325111 11 18411136948290539174
190213 19 17704356576173443832
20279233 1 17988928863980525030
20645464 45 18343590629239727863
20645477 70 17346321427973547310
20719005 15 18411981356067097757
20828058 44 18407755945977583138
22485316 2 18408037408011395530
23402539 116 18341886382211994845
3248919 1 18409726274687427934
5460574 1 7997972375429082036

> <PUBCHEM_SHAPE_MULTIPOLES>
168.49
7.42
1.12
0.68
4.04
0.23
0
-1.12
-0.23
-1.02
-0.09
-0.05
0.01
0.18

> <PUBCHEM_SHAPE_SELFOVERLAP>
284.338

> <PUBCHEM_SHAPE_VOLUME>
114.7

> <PUBCHEM_COORDINATE_TYPE>
2
5
10

$$$$
