522111
  -OEChem-11232109173D

 22 21  0     0  0  0  0  0  0999 V2000
   -0.5848   -0.7596   -0.8836 S   0  0  0  0  0  0  0  0  0  0  0  0
   -1.3002    1.0559   -0.2392 S   0  0  0  0  0  0  0  0  0  0  0  0
    1.6210   -0.2353    0.7497 C   0  0  0  0  0  0  0  0  0  0  0  0
    2.5836   -0.0849   -0.4314 C   0  0  0  0  0  0  0  0  0  0  0  0
    0.4932   -1.2362    0.4992 C   0  0  0  0  0  0  0  0  0  0  0  0
    3.7385    0.8440   -0.0885 C   0  0  0  0  0  0  0  0  0  0  0  0
   -2.7925    0.5665    0.6587 C   0  0  0  0  0  0  0  0  0  0  0  0
   -3.7589   -0.1505   -0.2649 C   0  0  0  0  0  0  0  0  0  0  0  0
    1.2326    0.7443    1.0482 H   0  0  0  0  0  0  0  0  0  0  0  0
    2.1923   -0.5976    1.6149 H   0  0  0  0  0  0  0  0  0  0  0  0
    2.9838   -1.0659   -0.7124 H   0  0  0  0  0  0  0  0  0  0  0  0
    2.0675    0.3204   -1.3079 H   0  0  0  0  0  0  0  0  0  0  0  0
    0.9157   -2.2200    0.2682 H   0  0  0  0  0  0  0  0  0  0  0  0
   -0.1155   -1.3557    1.4019 H   0  0  0  0  0  0  0  0  0  0  0  0
    4.4160    0.9378   -0.9431 H   0  0  0  0  0  0  0  0  0  0  0  0
    4.3137    0.4591    0.7596 H   0  0  0  0  0  0  0  0  0  0  0  0
    3.3744    1.8441    0.1679 H   0  0  0  0  0  0  0  0  0  0  0  0
   -2.5293   -0.0596    1.5170 H   0  0  0  0  0  0  0  0  0  0  0  0
   -3.2627    1.4750    1.0483 H   0  0  0  0  0  0  0  0  0  0  0  0
   -3.9807    0.4368   -1.1627 H   0  0  0  0  0  0  0  0  0  0  0  0
   -3.4040   -1.1397   -0.5675 H   0  0  0  0  0  0  0  0  0  0  0  0
   -4.7081   -0.3094    0.2594 H   0  0  0  0  0  0  0  0  0  0  0  0
  1  2  1  0  0  0  0
  1  5  1  0  0  0  0
  2  7  1  0  0  0  0
  3  4  1  0  0  0  0
  3  5  1  0  0  0  0
  3  9  1  0  0  0  0
  3 10  1  0  0  0  0
  4  6  1  0  0  0  0
  4 11  1  0  0  0  0
  4 12  1  0  0  0  0
  5 13  1  0  0  0  0
  5 14  1  0  0  0  0
  6 15  1  0  0  0  0
  6 16  1  0  0  0  0
  6 17  1  0  0  0  0
  7  8  1  0  0  0  0
  7 18  1  0  0  0  0
  7 19  1  0  0  0  0
  8 20  1  0  0  0  0
  8 21  1  0  0  0  0
  8 22  1  0  0  0  0
M  END
> <PUBCHEM_COMPOUND_CID>
522111

> <PUBCHEM_CONFORMER_RMSD>
0.6

> <PUBCHEM_CONFORMER_DIVERSEORDER>
3
74
101
47
80
44
117
57
30
133
107
18
121
91
48
97
119
77
7
131
126
99
113
58
110
49
100
132
2
118
19
68
115
98
63
87
127
51
105
64
65
130
29
40
114
50
84
111
6
14
81
54
4
85
35
75
8
69
128
55
66
9
72
92
34
37
108
109
129
1
82
52
13
27
88
104
15
61
116
106
28
83
76
5
124
73
41
56
79
96
43
12
59
45
25
53
67
123
95
112
36
125
78
62
94
71
26
39
86
16
38
60
90
122
33
93
70
11
31
22
102
24
103
42
120
17
32
20
21
23
10
46
89

> <PUBCHEM_MMFF94_PARTIAL_CHARGES>
4
1 -0.23
2 -0.23
5 0.23
7 0.23

> <PUBCHEM_EFFECTIVE_ROTOR_COUNT>
5

> <PUBCHEM_PHARMACOPHORE_FEATURES>
4
1 6 hydrophobe
1 8 hydrophobe
3 1 2 7 hydrophobe
3 3 4 5 hydrophobe

> <PUBCHEM_HEAVY_ATOM_COUNT>
8

> <PUBCHEM_ATOM_DEF_STEREO_COUNT>
0

> <PUBCHEM_ATOM_UDEF_STEREO_COUNT>
0

> <PUBCHEM_BOND_DEF_STEREO_COUNT>
0

> <PUBCHEM_BOND_UDEF_STEREO_COUNT>
0

> <PUBCHEM_ISOTOPIC_ATOM_COUNT>
0

> <PUBCHEM_COMPONENT_COUNT>
1

> <PUBCHEM_CACTVS_TAUTO_COUNT>
1

> <PUBCHEM_CONFORMER_ID>
0007F77F00000003

> <PUBCHEM_MMFF94_ENERGY>
-6.216

> <PUBCHEM_FEATURE_SELFOVERLAP>
20.377

> <PUBCHEM_SHAPE_FINGERPRINT>
10857977 72 15791736295114542687
11062470 55 15357697479086087837
12932764 1 15338825426962611885
14325111 11 18343022155446654389
14390081 3 18408604729787856456
15775835 57 18413389825856224608
170605 34 18335421253344760450
20201158 50 11025796496181509321
20211469 26 11746929889330409464
20651381 22 18335984194734439053
20711983 171 17274830095161138729
21028194 46 18261112941840548198
21293036 1 17203892972117297754
23235685 24 18334008406561946332

> <PUBCHEM_SHAPE_MULTIPOLES>
172.34
6.35
1.19
0.94
0.18
0.03
0.01
-1.68
0.1
0.05
0
-0.05
0.1
-0.25

> <PUBCHEM_SHAPE_SELFOVERLAP>
275.505

> <PUBCHEM_SHAPE_VOLUME>
121.7

> <PUBCHEM_COORDINATE_TYPE>
2
5
10

$$$$
