522255
  -OEChem-11232109133D

 36 35  0     0  0  0  0  0  0999 V2000
    4.6619    0.4451   -0.0120 O   0  0  0  0  0  0  0  0  0  0  0  0
    3.5709   -1.5867    0.0291 O   0  0  0  0  0  0  0  0  0  0  0  0
   -1.5017   -0.2637    0.0060 C   0  0  0  0  0  0  0  0  0  0  0  0
   -0.2233    0.5780    0.0064 C   0  0  0  0  0  0  0  0  0  0  0  0
   -2.7826    0.5756    0.0446 C   0  0  0  0  0  0  0  0  0  0  0  0
    1.0240   -0.3121    0.0406 C   0  0  0  0  0  0  0  0  0  0  0  0
   -4.0592   -0.2690    0.1183 C   0  0  0  0  0  0  0  0  0  0  0  0
    2.3195    0.4986    0.0748 C   0  0  0  0  0  0  0  0  0  0  0  0
   -5.3353    0.5798    0.1464 C   0  0  0  0  0  0  0  0  0  0  0  0
    3.5620   -0.3634    0.0390 C   0  0  0  0  0  0  0  0  0  0  0  0
   -6.5824   -0.2417    0.2911 C   0  0  0  0  0  0  0  0  0  0  0  0
    5.9210   -0.2315   -0.0826 C   0  0  0  0  0  0  0  0  0  0  0  0
   -7.6059   -0.2055   -0.5692 C   0  0  0  0  0  0  0  0  0  0  0  0
    7.0312    0.7965   -0.1324 C   0  0  0  0  0  0  0  0  0  0  0  0
   -1.5166   -0.9030   -0.8854 H   0  0  0  0  0  0  0  0  0  0  0  0
   -1.4911   -0.9331    0.8753 H   0  0  0  0  0  0  0  0  0  0  0  0
   -0.2216    1.2420    0.8791 H   0  0  0  0  0  0  0  0  0  0  0  0
   -0.2010    1.2144   -0.8862 H   0  0  0  0  0  0  0  0  0  0  0  0
   -2.8204    1.2134   -0.8471 H   0  0  0  0  0  0  0  0  0  0  0  0
   -2.7475    1.2457    0.9124 H   0  0  0  0  0  0  0  0  0  0  0  0
    0.9853   -0.9687    0.9190 H   0  0  0  0  0  0  0  0  0  0  0  0
    1.0263   -0.9687   -0.8388 H   0  0  0  0  0  0  0  0  0  0  0  0
   -4.0934   -0.9482   -0.7431 H   0  0  0  0  0  0  0  0  0  0  0  0
   -4.0188   -0.8997    1.0156 H   0  0  0  0  0  0  0  0  0  0  0  0
    2.3495    1.1681   -0.7926 H   0  0  0  0  0  0  0  0  0  0  0  0
    2.3509    1.1025    0.9886 H   0  0  0  0  0  0  0  0  0  0  0  0
   -5.3800    1.1951   -0.7607 H   0  0  0  0  0  0  0  0  0  0  0  0
   -5.2871    1.2738    0.9946 H   0  0  0  0  0  0  0  0  0  0  0  0
   -6.6556   -0.8901    1.1604 H   0  0  0  0  0  0  0  0  0  0  0  0
    5.9515   -0.8531   -0.9844 H   0  0  0  0  0  0  0  0  0  0  0  0
    6.0443   -0.8668    0.8016 H   0  0  0  0  0  0  0  0  0  0  0  0
   -8.4847   -0.8190   -0.4033 H   0  0  0  0  0  0  0  0  0  0  0  0
   -7.5872    0.4301   -1.4475 H   0  0  0  0  0  0  0  0  0  0  0  0
    6.9113    1.4513   -1.0018 H   0  0  0  0  0  0  0  0  0  0  0  0
    7.0026    1.4378    0.7547 H   0  0  0  0  0  0  0  0  0  0  0  0
    8.0103    0.3126   -0.1869 H   0  0  0  0  0  0  0  0  0  0  0  0
  1 10  1  0  0  0  0
  1 12  1  0  0  0  0
  2 10  2  0  0  0  0
  3  4  1  0  0  0  0
  3  5  1  0  0  0  0
  3 15  1  0  0  0  0
  3 16  1  0  0  0  0
  4  6  1  0  0  0  0
  4 17  1  0  0  0  0
  4 18  1  0  0  0  0
  5  7  1  0  0  0  0
  5 19  1  0  0  0  0
  5 20  1  0  0  0  0
  6  8  1  0  0  0  0
  6 21  1  0  0  0  0
  6 22  1  0  0  0  0
  7  9  1  0  0  0  0
  7 23  1  0  0  0  0
  7 24  1  0  0  0  0
  8 10  1  0  0  0  0
  8 25  1  0  0  0  0
  8 26  1  0  0  0  0
  9 11  1  0  0  0  0
  9 27  1  0  0  0  0
  9 28  1  0  0  0  0
 11 13  2  0  0  0  0
 11 29  1  0  0  0  0
 12 14  1  0  0  0  0
 12 30  1  0  0  0  0
 12 31  1  0  0  0  0
 13 32  1  0  0  0  0
 13 33  1  0  0  0  0
 14 34  1  0  0  0  0
 14 35  1  0  0  0  0
 14 36  1  0  0  0  0
M  END
> <PUBCHEM_COMPOUND_CID>
522255

> <PUBCHEM_CONFORMER_RMSD>
1

> <PUBCHEM_CONFORMER_DIVERSEORDER>
1
95
41
29
50
79
114
68
12
8
77
10
87
42
5
67
32
35
75
51
19
54
71
15
27
43
111
39
85
118
62
9
98
21
36
102
14
34
69
88
26
117
40
13
109
86
101
90
28
55
16
60
24
52
81
115
49
104
82
25
64
47
70
97
31
112
78
108
61
84
6
30
46
113
18
44
17
73
45
96
59
2
58
103
48
76
3
57
66
80
53
83
93
7
91
33
11
63
4
65
20
56
37
110
94
89
22
23
72
99
92
38
107
116
105
106
100
74

> <PUBCHEM_MMFF94_PARTIAL_CHARGES>
11
1 -0.43
10 0.66
11 -0.29
12 0.28
13 -0.3
2 -0.57
29 0.15
32 0.15
33 0.15
8 0.06
9 0.14

> <PUBCHEM_EFFECTIVE_ROTOR_COUNT>
10

> <PUBCHEM_PHARMACOPHORE_FEATURES>
2
1 13 hydrophobe
1 2 acceptor

> <PUBCHEM_HEAVY_ATOM_COUNT>
14

> <PUBCHEM_ATOM_DEF_STEREO_COUNT>
0

> <PUBCHEM_ATOM_UDEF_STEREO_COUNT>
0

> <PUBCHEM_BOND_DEF_STEREO_COUNT>
0

> <PUBCHEM_BOND_UDEF_STEREO_COUNT>
0

> <PUBCHEM_ISOTOPIC_ATOM_COUNT>
0

> <PUBCHEM_COMPONENT_COUNT>
1

> <PUBCHEM_CACTVS_TAUTO_COUNT>
1

> <PUBCHEM_CONFORMER_ID>
0007F80F00000001

> <PUBCHEM_MMFF94_ENERGY>
3.1775

> <PUBCHEM_FEATURE_SELFOVERLAP>
10.148

> <PUBCHEM_SHAPE_FINGERPRINT>
10968037 39 18410293619078097647
11315181 36 18412267251319640745
12091667 2 18413952785470335697
13533116 47 17632297817978514806
14123256 10 18413952788747243308
14251718 22 18334858307406705633
14251764 18 18343865511156731161
14251764 46 18410293613981355056
14729087 3 15719385123757653781
17834076 25 18411138038916761769
18006028 8 18273213101796298065
20621476 8 9439411224591059947
20645477 70 18338798888952489446
21150785 3 18342737433886105213
220451 1 16200429157084970223
22224240 67 18260545649796744010
22896161 15 18411701006503713419
23035841 295 10087639299852330261
23402539 116 18131346410930805477
23521765 1 18341895194682928617
28498 318 9079125453303622904
328311 84 11527950071010530765
33532 11 14189582909906354996
33684 2 18410573985151451146
3545911 37 18411136943700081802
42788 4 18411982455578829513
57583515 80 12396299253693274909
8209 1 18409449189452195212

> <PUBCHEM_SHAPE_MULTIPOLES>
276.37
21.75
0.93
0.64
7.68
0.14
-0.01
-0.67
-1.65
-0.67
0.01
0.27
0
-0.11

> <PUBCHEM_SHAPE_SELFOVERLAP>
504.303

> <PUBCHEM_SHAPE_VOLUME>
175.9

> <PUBCHEM_COORDINATE_TYPE>
2
5
10

$$$$
