522667
  -OEChem-11232108443D

 42 44  0     1  0  0  0  0  0999 V2000
   -3.2150   -0.1178   -0.2775 O   0  0  0  0  0  0  0  0  0  0  0  0
    0.8482    0.6182   -0.2198 C   0  0  1  0  0  0  0  0  0  0  0  0
    0.7005   -0.8498   -0.7322 C   0  0  2  0  0  0  0  0  0  0  0  0
   -0.4266   -1.4861    0.1509 C   0  0  0  0  0  0  0  0  0  0  0  0
   -1.0566   -0.2391    0.8816 C   0  0  1  0  0  0  0  0  0  0  0  0
    0.2054    0.5820    1.1742 C   0  0  0  0  0  0  0  0  0  0  0  0
    2.3591    0.8998   -0.2410 C   0  0  2  0  0  0  0  0  0  0  0  0
    0.0366    1.6053   -1.0875 C   0  0  0  0  0  0  0  0  0  0  0  0
   -2.0562    0.6463    0.0691 C   0  0  1  0  0  0  0  0  0  0  0  0
    2.1183   -1.4456   -0.6879 C   0  0  0  0  0  0  0  0  0  0  0  0
    2.9727   -0.4585    0.1006 C   0  0  0  0  0  0  0  0  0  0  0  0
   -1.4340    1.1887   -1.2333 C   0  0  0  0  0  0  0  0  0  0  0  0
   -1.4021   -2.2958   -0.7183 C   0  0  0  0  0  0  0  0  0  0  0  0
    0.1011   -2.4759    1.2206 C   0  0  0  0  0  0  0  0  0  0  0  0
    2.8349    2.0098    0.6845 C   0  0  0  0  0  0  0  0  0  0  0  0
   -2.5862    1.8184    0.9161 C   0  0  0  0  0  0  0  0  0  0  0  0
    0.3900   -0.8537   -1.7852 H   0  0  0  0  0  0  0  0  0  0  0  0
   -1.5446   -0.5589    1.8106 H   0  0  0  0  0  0  0  0  0  0  0  0
    0.0065    1.5794    1.5750 H   0  0  0  0  0  0  0  0  0  0  0  0
    0.8377    0.0838    1.9153 H   0  0  0  0  0  0  0  0  0  0  0  0
    2.6605    1.1598   -1.2654 H   0  0  0  0  0  0  0  0  0  0  0  0
    0.4774    1.6884   -2.0886 H   0  0  0  0  0  0  0  0  0  0  0  0
    0.0840    2.6082   -0.6449 H   0  0  0  0  0  0  0  0  0  0  0  0
    2.5056   -1.4936   -1.7146 H   0  0  0  0  0  0  0  0  0  0  0  0
    2.1844   -2.4609   -0.2936 H   0  0  0  0  0  0  0  0  0  0  0  0
    2.9096   -0.6708    1.1737 H   0  0  0  0  0  0  0  0  0  0  0  0
    4.0269   -0.5165   -0.1888 H   0  0  0  0  0  0  0  0  0  0  0  0
   -2.0186    2.0351   -1.6168 H   0  0  0  0  0  0  0  0  0  0  0  0
   -1.5129    0.4336   -2.0243 H   0  0  0  0  0  0  0  0  0  0  0  0
   -0.9049   -3.1775   -1.1401 H   0  0  0  0  0  0  0  0  0  0  0  0
   -2.2557   -2.6483   -0.1290 H   0  0  0  0  0  0  0  0  0  0  0  0
   -1.7866   -1.7276   -1.5685 H   0  0  0  0  0  0  0  0  0  0  0  0
    0.4878   -3.3934    0.7630 H   0  0  0  0  0  0  0  0  0  0  0  0
    0.9000   -2.0557    1.8370 H   0  0  0  0  0  0  0  0  0  0  0  0
   -0.7073   -2.7775    1.8974 H   0  0  0  0  0  0  0  0  0  0  0  0
    3.9149    2.1573    0.5768 H   0  0  0  0  0  0  0  0  0  0  0  0
    2.3417    2.9568    0.4440 H   0  0  0  0  0  0  0  0  0  0  0  0
    2.6390    1.7807    1.7366 H   0  0  0  0  0  0  0  0  0  0  0  0
   -1.8285    2.5807    1.1148 H   0  0  0  0  0  0  0  0  0  0  0  0
   -3.4259    2.3099    0.4098 H   0  0  0  0  0  0  0  0  0  0  0  0
   -2.9767    1.4587    1.8749 H   0  0  0  0  0  0  0  0  0  0  0  0
   -3.5894   -0.4818    0.5430 H   0  0  0  0  0  0  0  0  0  0  0  0
  1  9  1  0  0  0  0
  1 42  1  0  0  0  0
  2  3  1  0  0  0  0
  2  6  1  0  0  0  0
  2  7  1  0  0  0  0
  2  8  1  0  0  0  0
  3  4  1  0  0  0  0
  3 10  1  0  0  0  0
  3 17  1  0  0  0  0
  4  5  1  0  0  0  0
  4 13  1  0  0  0  0
  4 14  1  0  0  0  0
  5  6  1  0  0  0  0
  5  9  1  0  0  0  0
  5 18  1  0  0  0  0
  6 19  1  0  0  0  0
  6 20  1  0  0  0  0
  7 11  1  0  0  0  0
  7 15  1  0  0  0  0
  7 21  1  0  0  0  0
  8 12  1  0  0  0  0
  8 22  1  0  0  0  0
  8 23  1  0  0  0  0
  9 12  1  0  0  0  0
  9 16  1  0  0  0  0
 10 11  1  0  0  0  0
 10 24  1  0  0  0  0
 10 25  1  0  0  0  0
 11 26  1  0  0  0  0
 11 27  1  0  0  0  0
 12 28  1  0  0  0  0
 12 29  1  0  0  0  0
 13 30  1  0  0  0  0
 13 31  1  0  0  0  0
 13 32  1  0  0  0  0
 14 33  1  0  0  0  0
 14 34  1  0  0  0  0
 14 35  1  0  0  0  0
 15 36  1  0  0  0  0
 15 37  1  0  0  0  0
 15 38  1  0  0  0  0
 16 39  1  0  0  0  0
 16 40  1  0  0  0  0
 16 41  1  0  0  0  0
M  END
> <PUBCHEM_COMPOUND_CID>
522667

> <PUBCHEM_CONFORMER_RMSD>
0.6

> <PUBCHEM_CONFORMER_DIVERSEORDER>
1
6
12
2
7
4
10
8
3
5
9
11

> <PUBCHEM_MMFF94_PARTIAL_CHARGES>
3
1 -0.68
42 0.4
9 0.28

> <PUBCHEM_EFFECTIVE_ROTOR_COUNT>
1.6

> <PUBCHEM_PHARMACOPHORE_FEATURES>
5
1 1 acceptor
1 1 donor
3 4 13 14 hydrophobe
5 2 3 7 10 11 rings
8 2 3 4 5 6 8 9 12 rings

> <PUBCHEM_HEAVY_ATOM_COUNT>
16

> <PUBCHEM_ATOM_DEF_STEREO_COUNT>
0

> <PUBCHEM_ATOM_UDEF_STEREO_COUNT>
5

> <PUBCHEM_BOND_DEF_STEREO_COUNT>
0

> <PUBCHEM_BOND_UDEF_STEREO_COUNT>
0

> <PUBCHEM_ISOTOPIC_ATOM_COUNT>
0

> <PUBCHEM_COMPONENT_COUNT>
1

> <PUBCHEM_CACTVS_TAUTO_COUNT>
1

> <PUBCHEM_CONFORMER_ID>
0007F9AB00000001

> <PUBCHEM_MMFF94_ENERGY>
76.2238

> <PUBCHEM_FEATURE_SELFOVERLAP>
25.431

> <PUBCHEM_SHAPE_FINGERPRINT>
1 1 18264210197128771971
10863032 1 18271523203483589215
10948715 1 18342457045124878073
12423570 1 12725946505695722492
12491281 212 18342468044567739264
12524768 44 18408047307689291372
13024252 1 13985759906550987596
13140716 1 18335706017976146450
13172582 1 18187938260884033781
13380535 76 18339639053026507298
13380536 237 18341321297147955194
144361 1 18340200907431212155
14614273 12 18194393618331255020
14817 1 14328873260428127099
15490181 7 18190164724653809662
15557651 10 18117855303851136886
15775835 57 18263372390695673030
15852999 172 18265591338536626188
15881359 60 18045801231902871219
16945 1 18273220802223903054
18186145 218 18200316506891787620
20511035 2 18191052086356188390
20525323 117 18120931973825230540
21501502 16 18339919428517970470
22344851 262 18191026900726142876
22344851 341 18410287012669797666
2334 1 18335707199129153742
23388829 49 17618221049753917228
23402539 116 18048017864334685807
23419403 2 16756291903119068389
23493267 7 16009890311271923716
23559900 14 18200871894204372856
25 1 18197229043991958988
2748010 2 18261967305035073727
3286 77 18341331102336824044
353137 74 18265036085265014687
5084963 1 18335704914164328261
5255222 1 18044657486106038158
528886 8 18196372515843824577
63268167 104 18268155257807876794
69090 78 18341608239470451119
81228 2 18046067317732126802

> <PUBCHEM_SHAPE_MULTIPOLES>
323.4
3.9
2.52
1.21
0.47
0.83
-0.05
-1.4
-0.18
-0.07
-0.22
-0.19
-0.05
0.08

> <PUBCHEM_SHAPE_SELFOVERLAP>
687.514

> <PUBCHEM_SHAPE_VOLUME>
185.6

> <PUBCHEM_COORDINATE_TYPE>
2
5
10

$$$$
