522771
  -OEChem-11232108513D

 30 31  0     0  0  0  0  0  0999 V2000
    0.2330   -0.4458    0.1747 O   0  0  0  0  0  0  0  0  0  0  0  0
   -1.1632   -2.2059    0.6767 O   0  0  0  0  0  0  0  0  0  0  0  0
   -3.5839   -1.8228   -0.5947 N   0  0  0  0  0  0  0  0  0  0  0  0
    2.6196   -0.4897    0.0968 C   0  0  0  0  0  0  0  0  0  0  0  0
    1.3758   -1.2907    0.3480 C   0  0  0  0  0  0  0  0  0  0  0  0
   -2.0698   -0.0617    0.1612 C   0  0  0  0  0  0  0  0  0  0  0  0
   -3.3207   -0.4652   -0.3057 C   0  0  0  0  0  0  0  0  0  0  0  0
   -0.9921   -1.0211    0.3675 C   0  0  0  0  0  0  0  0  0  0  0  0
    3.1466   -0.4214   -1.1880 C   0  0  0  0  0  0  0  0  0  0  0  0
    3.2340    0.1768    1.1510 C   0  0  0  0  0  0  0  0  0  0  0  0
   -1.8304    1.2837    0.4406 C   0  0  0  0  0  0  0  0  0  0  0  0
   -4.3321    0.4769   -0.4934 C   0  0  0  0  0  0  0  0  0  0  0  0
   -2.8418    2.2258    0.2529 C   0  0  0  0  0  0  0  0  0  0  0  0
    4.3027    0.3231   -1.4217 C   0  0  0  0  0  0  0  0  0  0  0  0
    4.3902    0.9213    0.9173 C   0  0  0  0  0  0  0  0  0  0  0  0
   -4.0926    1.8223   -0.2141 C   0  0  0  0  0  0  0  0  0  0  0  0
    4.9246    0.9944   -0.3690 C   0  0  0  0  0  0  0  0  0  0  0  0
    1.3836   -1.6959    1.3674 H   0  0  0  0  0  0  0  0  0  0  0  0
    1.3194   -2.1351   -0.3501 H   0  0  0  0  0  0  0  0  0  0  0  0
    2.6692   -0.9386   -2.0157 H   0  0  0  0  0  0  0  0  0  0  0  0
    2.8250    0.1285    2.1564 H   0  0  0  0  0  0  0  0  0  0  0  0
   -0.8722    1.6300    0.8194 H   0  0  0  0  0  0  0  0  0  0  0  0
   -5.3116    0.1764   -0.8566 H   0  0  0  0  0  0  0  0  0  0  0  0
   -2.6568    3.2731    0.4735 H   0  0  0  0  0  0  0  0  0  0  0  0
   -4.8804    2.5558   -0.3593 H   0  0  0  0  0  0  0  0  0  0  0  0
    4.7185    0.3806   -2.4234 H   0  0  0  0  0  0  0  0  0  0  0  0
    4.8741    1.4446    1.7368 H   0  0  0  0  0  0  0  0  0  0  0  0
    5.8247    1.5743   -0.5510 H   0  0  0  0  0  0  0  0  0  0  0  0
   -4.4973   -2.0948   -0.9341 H   0  0  0  0  0  0  0  0  0  0  0  0
   -2.8670   -2.5256   -0.4804 H   0  0  0  0  0  0  0  0  0  0  0  0
  1  5  1  0  0  0  0
  1  8  1  0  0  0  0
  2  8  2  0  0  0  0
  3  7  1  0  0  0  0
  3 29  1  0  0  0  0
  3 30  1  0  0  0  0
  4  5  1  0  0  0  0
  4  9  2  0  0  0  0
  4 10  1  0  0  0  0
  5 18  1  0  0  0  0
  5 19  1  0  0  0  0
  6  7  1  0  0  0  0
  6  8  1  0  0  0  0
  6 11  2  0  0  0  0
  7 12  2  0  0  0  0
  9 14  1  0  0  0  0
  9 20  1  0  0  0  0
 10 15  2  0  0  0  0
 10 21  1  0  0  0  0
 11 13  1  0  0  0  0
 11 22  1  0  0  0  0
 12 16  1  0  0  0  0
 12 23  1  0  0  0  0
 13 16  2  0  0  0  0
 13 24  1  0  0  0  0
 14 17  2  0  0  0  0
 14 26  1  0  0  0  0
 15 17  1  0  0  0  0
 15 27  1  0  0  0  0
 16 25  1  0  0  0  0
 17 28  1  0  0  0  0
M  END
> <PUBCHEM_COMPOUND_CID>
522771

> <PUBCHEM_CONFORMER_RMSD>
0.6

> <PUBCHEM_CONFORMER_DIVERSEORDER>
1
46
37
22
47
16
23
51
15
52
2
40
33
38
34
3
35
8
28
21
7
39
4
20
32
43
24
5
44
27
6
12
11
30
36
26
10
9
48
31
25
13
45
18
42
29
19
14
17
41
50
49

> <PUBCHEM_MMFF94_PARTIAL_CHARGES>
28
1 -0.43
10 -0.15
11 -0.15
12 -0.15
13 -0.15
14 -0.15
15 -0.15
16 -0.15
17 -0.15
2 -0.57
20 0.15
21 0.15
22 0.15
23 0.15
24 0.15
25 0.15
26 0.15
27 0.15
28 0.15
29 0.4
3 -0.9
30 0.4
4 -0.14
5 0.42
6 0.09
7 0.1
8 0.63
9 -0.15

> <PUBCHEM_EFFECTIVE_ROTOR_COUNT>
4

> <PUBCHEM_PHARMACOPHORE_FEATURES>
5
1 2 acceptor
1 3 cation
1 3 donor
6 4 9 10 14 15 17 rings
6 6 7 11 12 13 16 rings

> <PUBCHEM_HEAVY_ATOM_COUNT>
17

> <PUBCHEM_ATOM_DEF_STEREO_COUNT>
0

> <PUBCHEM_ATOM_UDEF_STEREO_COUNT>
0

> <PUBCHEM_BOND_DEF_STEREO_COUNT>
0

> <PUBCHEM_BOND_UDEF_STEREO_COUNT>
0

> <PUBCHEM_ISOTOPIC_ATOM_COUNT>
0

> <PUBCHEM_COMPONENT_COUNT>
1

> <PUBCHEM_CACTVS_TAUTO_COUNT>
2

> <PUBCHEM_CONFORMER_ID>
0007FA1300000001

> <PUBCHEM_MMFF94_ENERGY>
59.114

> <PUBCHEM_FEATURE_SELFOVERLAP>
25.371

> <PUBCHEM_SHAPE_FINGERPRINT>
10014705 185 18187922846779314549
10498660 4 18412543180565501512
10646746 165 18413106156636457400
10670039 82 18188502267927171692
11543360 7 16917057867430982077
12173636 292 18339918213084463031
12390115 104 17987248729332078665
12596602 18 16660650669217864960
12670546 177 17346593101507671548
12788726 201 17316493000294002650
12916748 109 18409171004288467177
13675066 3 12540694825317661506
14123260 362 18260276238929408988
14739800 52 18192135205080973880
14790565 3 17696758762227883249
15239191 94 11312053240592786164
1741750 31 18334579035795911666
1798214 55 18335141955789868272
1813 80 12823295727546644066
18186145 218 17846783983487928082
193927 3 10375577244186178637
200 152 14979961358759382178
20300324 65 18342737433822795191
20645477 56 18412547596034020123
20645477 70 16845303717897715078
23366157 5 17899414190695682035
23402539 116 18410845586067076230
23402655 69 18059857238233700556
235170 7 17275110517791864396
23557571 272 18201163242582740815
23559900 14 18272369720674983782
23596394 208 17489316252487241198
3268164 11 18341323466027273405
341906 21 18336256916689418776
3472631 163 18411702041565082141
4028521 119 18343019969297926633
42 15 10881403123210846556
441001 317 18410294739690249448
474 4 17603589620953171162
4990 188 17917715682362139566
5104073 3 18335138657054571330
5281201 14 17703799119599537588
9981440 41 18333728026596818362

> <PUBCHEM_SHAPE_MULTIPOLES>
333.13
10.8
1.93
1.05
4.41
0.01
-0.13
4.05
-2.01
-2.01
0.19
1.12
0.02
-0.01

> <PUBCHEM_SHAPE_SELFOVERLAP>
714.769

> <PUBCHEM_SHAPE_VOLUME>
183.7

> <PUBCHEM_COORDINATE_TYPE>
2
5
10

$$$$
