522877
  -OEChem-11232109063D

 20 20  0     0  0  0  0  0  0999 V2000
   -0.1561   -1.5052    0.1836 S   0  0  0  0  0  0  0  0  0  0  0  0
   -0.2421    1.0784    0.1938 N   0  0  0  0  0  0  0  0  0  0  0  0
   -0.9795   -0.0044    0.3031 C   0  0  0  0  0  0  0  0  0  0  0  0
   -2.4432   -0.0022    0.5176 C   0  0  0  0  0  0  0  0  0  0  0  0
    1.3156   -0.6524   -0.0348 C   0  0  0  0  0  0  0  0  0  0  0  0
    1.0734    0.7049    0.0004 C   0  0  0  0  0  0  0  0  0  0  0  0
   -3.2344   -0.0030   -0.7932 C   0  0  0  0  0  0  0  0  0  0  0  0
    2.5823   -1.3882   -0.2219 C   0  0  0  0  0  0  0  0  0  0  0  0
    2.0840    1.7721   -0.1487 C   0  0  0  0  0  0  0  0  0  0  0  0
   -2.7546   -0.8590    1.1274 H   0  0  0  0  0  0  0  0  0  0  0  0
   -2.7168    0.8933    1.0892 H   0  0  0  0  0  0  0  0  0  0  0  0
   -2.9774    0.8668   -1.4073 H   0  0  0  0  0  0  0  0  0  0  0  0
   -4.3086    0.0295   -0.5859 H   0  0  0  0  0  0  0  0  0  0  0  0
   -3.0268   -0.9037   -1.3804 H   0  0  0  0  0  0  0  0  0  0  0  0
    2.7986   -2.0189    0.6470 H   0  0  0  0  0  0  0  0  0  0  0  0
    2.5340   -2.0285   -1.1091 H   0  0  0  0  0  0  0  0  0  0  0  0
    3.4299   -0.7083   -0.3535 H   0  0  0  0  0  0  0  0  0  0  0  0
    2.8428    1.6985    0.6368 H   0  0  0  0  0  0  0  0  0  0  0  0
    2.5811    1.7005   -1.1212 H   0  0  0  0  0  0  0  0  0  0  0  0
    1.6251    2.7636   -0.0792 H   0  0  0  0  0  0  0  0  0  0  0  0
  1  3  1  0  0  0  0
  1  5  1  0  0  0  0
  2  3  2  0  0  0  0
  2  6  1  0  0  0  0
  3  4  1  0  0  0  0
  4  7  1  0  0  0  0
  4 10  1  0  0  0  0
  4 11  1  0  0  0  0
  5  6  2  0  0  0  0
  5  8  1  0  0  0  0
  6  9  1  0  0  0  0
  7 12  1  0  0  0  0
  7 13  1  0  0  0  0
  7 14  1  0  0  0  0
  8 15  1  0  0  0  0
  8 16  1  0  0  0  0
  8 17  1  0  0  0  0
  9 18  1  0  0  0  0
  9 19  1  0  0  0  0
  9 20  1  0  0  0  0
M  END
> <PUBCHEM_COMPOUND_CID>
522877

> <PUBCHEM_CONFORMER_RMSD>
0.4

> <PUBCHEM_CONFORMER_DIVERSEORDER>
2
1
3
4

> <PUBCHEM_MMFF94_PARTIAL_CHARGES>
8
1 -0.08
2 -0.57
3 0.2
4 0.18
5 -0.14
6 0.05
8 0.18
9 0.18

> <PUBCHEM_EFFECTIVE_ROTOR_COUNT>
1

> <PUBCHEM_PHARMACOPHORE_FEATURES>
3
1 2 acceptor
1 7 hydrophobe
5 1 2 3 5 6 rings

> <PUBCHEM_HEAVY_ATOM_COUNT>
9

> <PUBCHEM_ATOM_DEF_STEREO_COUNT>
0

> <PUBCHEM_ATOM_UDEF_STEREO_COUNT>
0

> <PUBCHEM_BOND_DEF_STEREO_COUNT>
0

> <PUBCHEM_BOND_UDEF_STEREO_COUNT>
0

> <PUBCHEM_ISOTOPIC_ATOM_COUNT>
0

> <PUBCHEM_COMPONENT_COUNT>
1

> <PUBCHEM_CACTVS_TAUTO_COUNT>
2

> <PUBCHEM_CONFORMER_ID>
0007FA7D00000002

> <PUBCHEM_MMFF94_ENERGY>
3.9733

> <PUBCHEM_FEATURE_SELFOVERLAP>
15.223

> <PUBCHEM_SHAPE_FINGERPRINT>
11206711 2 18190467047370204868
12897270 3 18334292042107660583
12932741 1 17822297898392431179
12932764 1 17458061556357018219
13380535 76 18266173014610748666
14128692 85 18130505245163458687
14325111 11 18409730703136281105
16945 1 18337679624210553762
20645477 70 18412539912686194231
21040471 1 18194124237908590328
23552423 10 18410576171458798275
2748010 2 18265063607141231602
29004967 10 18336552624749781555
5084963 1 18201998789820655771

> <PUBCHEM_SHAPE_MULTIPOLES>
184.08
4.12
1.68
0.74
2.22
0.09
0.04
0.01
0.79
-1.34
0.03
0.29
-0.02
0.06

> <PUBCHEM_SHAPE_SELFOVERLAP>
353.803

> <PUBCHEM_SHAPE_VOLUME>
115.1

> <PUBCHEM_COORDINATE_TYPE>
2
5
10

$$$$
