523918
  -OEChem-11232109133D

 19 18  0     0  0  0  0  0  0999 V2000
    0.3002   -0.2705    0.0810 O   0  0  0  0  0  0  0  0  0  0  0  0
   -0.7936    1.6847   -0.5254 O   0  0  0  0  0  0  0  0  0  0  0  0
   -2.7536    0.1761    0.9937 O   0  0  0  0  0  0  0  0  0  0  0  0
    2.6637   -0.6683    0.2285 C   0  0  0  0  0  0  0  0  0  0  0  0
    1.5784    0.3478   -0.0925 C   0  0  0  0  0  0  0  0  0  0  0  0
    4.0536   -0.0761    0.0800 C   0  0  0  0  0  0  0  0  0  0  0  0
   -0.7574    0.5221   -0.1718 C   0  0  0  0  0  0  0  0  0  0  0  0
   -2.0181   -0.2436    0.1129 C   0  0  0  0  0  0  0  0  0  0  0  0
   -2.2732   -1.4722   -0.7065 C   0  0  0  0  0  0  0  0  0  0  0  0
    2.5261   -1.0431    1.2499 H   0  0  0  0  0  0  0  0  0  0  0  0
    2.5574   -1.5397   -0.4286 H   0  0  0  0  0  0  0  0  0  0  0  0
    1.6573    1.2095    0.5809 H   0  0  0  0  0  0  0  0  0  0  0  0
    1.6773    0.6906   -1.1292 H   0  0  0  0  0  0  0  0  0  0  0  0
    4.1931    0.7724    0.7575 H   0  0  0  0  0  0  0  0  0  0  0  0
    4.8134   -0.8276    0.3161 H   0  0  0  0  0  0  0  0  0  0  0  0
    4.2251    0.2701   -0.9443 H   0  0  0  0  0  0  0  0  0  0  0  0
   -2.1852   -1.2318   -1.7690 H   0  0  0  0  0  0  0  0  0  0  0  0
   -1.5612   -2.2552   -0.4352 H   0  0  0  0  0  0  0  0  0  0  0  0
   -3.2880   -1.8318   -0.5152 H   0  0  0  0  0  0  0  0  0  0  0  0
  1  5  1  0  0  0  0
  1  7  1  0  0  0  0
  2  7  2  0  0  0  0
  3  8  2  0  0  0  0
  4  5  1  0  0  0  0
  4  6  1  0  0  0  0
  4 10  1  0  0  0  0
  4 11  1  0  0  0  0
  5 12  1  0  0  0  0
  5 13  1  0  0  0  0
  6 14  1  0  0  0  0
  6 15  1  0  0  0  0
  6 16  1  0  0  0  0
  7  8  1  0  0  0  0
  8  9  1  0  0  0  0
  9 17  1  0  0  0  0
  9 18  1  0  0  0  0
  9 19  1  0  0  0  0
M  END
> <PUBCHEM_COMPOUND_CID>
523918

> <PUBCHEM_CONFORMER_RMSD>
0.6

> <PUBCHEM_CONFORMER_DIVERSEORDER>
1
55
52
43
28
37
17
53
35
20
31
40
58
5
57
48
56
3
54
27
34
29
22
51
38
47
46
23
33
7
42
16
25
24
14
30
45
49
4
32
50
9
41
39
19
8
12
13
36
26
21
18
10
2
6
44
11
15

> <PUBCHEM_MMFF94_PARTIAL_CHARGES>
7
1 -0.43
2 -0.57
3 -0.57
5 0.28
7 0.72
8 0.51
9 0.06

> <PUBCHEM_EFFECTIVE_ROTOR_COUNT>
4

> <PUBCHEM_PHARMACOPHORE_FEATURES>
3
1 2 acceptor
1 3 acceptor
1 6 hydrophobe

> <PUBCHEM_HEAVY_ATOM_COUNT>
9

> <PUBCHEM_ATOM_DEF_STEREO_COUNT>
0

> <PUBCHEM_ATOM_UDEF_STEREO_COUNT>
0

> <PUBCHEM_BOND_DEF_STEREO_COUNT>
0

> <PUBCHEM_BOND_UDEF_STEREO_COUNT>
0

> <PUBCHEM_ISOTOPIC_ATOM_COUNT>
0

> <PUBCHEM_COMPONENT_COUNT>
1

> <PUBCHEM_CACTVS_TAUTO_COUNT>
2

> <PUBCHEM_CONFORMER_ID>
0007FE8E00000001

> <PUBCHEM_MMFF94_ENERGY>
6.5856

> <PUBCHEM_FEATURE_SELFOVERLAP>
15.225

> <PUBCHEM_SHAPE_FINGERPRINT>
12932764 1 18411411787758997002
14325111 11 18336262354233838954
20211469 26 17845925325183883199
20645464 45 17060346205630302039
3248919 1 17346597469652922068

> <PUBCHEM_SHAPE_MULTIPOLES>
167.61
5.7
1.22
0.77
4.94
0.05
0.04
-1.28
0.6
-0.69
-0.28
-0.35
0
-0.29

> <PUBCHEM_SHAPE_SELFOVERLAP>
311.506

> <PUBCHEM_SHAPE_VOLUME>
105.4

> <PUBCHEM_COORDINATE_TYPE>
2
5
10

$$$$
