524461
  -OEChem-11232109243D

 32 32  0     1  0  0  0  0  0999 V2000
   -1.3266    0.9987   -0.2889 O   0  0  0  0  0  0  0  0  0  0  0  0
   -3.3877   -0.0438   -0.2607 O   0  0  0  0  0  0  0  0  0  0  0  0
    1.5473    0.2397    0.1996 C   0  0  1  0  0  0  0  0  0  0  0  0
    0.7570    0.1259   -1.1188 C   0  0  0  0  0  0  0  0  0  0  0  0
    1.3403   -1.0081    1.0730 C   0  0  0  0  0  0  0  0  0  0  0  0
   -0.7315   -0.1553   -0.8810 C   0  0  1  0  0  0  0  0  0  0  0  0
   -0.1430   -1.2832    1.3304 C   0  0  0  0  0  0  0  0  0  0  0  0
   -0.9084   -1.3412    0.0339 C   0  0  0  0  0  0  0  0  0  0  0  0
    3.0055    0.4550   -0.0669 C   0  0  0  0  0  0  0  0  0  0  0  0
    3.5908    1.7348    0.4523 C   0  0  0  0  0  0  0  0  0  0  0  0
   -1.6684   -2.3942   -0.3012 C   0  0  0  0  0  0  0  0  0  0  0  0
    3.7455   -0.4451   -0.7311 C   0  0  0  0  0  0  0  0  0  0  0  0
   -2.6699    0.9197   -0.0295 C   0  0  0  0  0  0  0  0  0  0  0  0
   -3.1509    2.1970    0.5890 C   0  0  0  0  0  0  0  0  0  0  0  0
    1.1545    1.1030    0.7546 H   0  0  0  0  0  0  0  0  0  0  0  0
    1.1633   -0.6759   -1.7487 H   0  0  0  0  0  0  0  0  0  0  0  0
    0.8629    1.0638   -1.6797 H   0  0  0  0  0  0  0  0  0  0  0  0
    1.8516   -0.8813    2.0358 H   0  0  0  0  0  0  0  0  0  0  0  0
    1.7781   -1.8973    0.6008 H   0  0  0  0  0  0  0  0  0  0  0  0
   -1.2058   -0.3201   -1.8573 H   0  0  0  0  0  0  0  0  0  0  0  0
   -0.5616   -0.4887    1.9604 H   0  0  0  0  0  0  0  0  0  0  0  0
   -0.2425   -2.2174    1.8957 H   0  0  0  0  0  0  0  0  0  0  0  0
    3.0810    2.5947    0.0056 H   0  0  0  0  0  0  0  0  0  0  0  0
    3.4804    1.7896    1.5402 H   0  0  0  0  0  0  0  0  0  0  0  0
    4.6576    1.8238    0.2213 H   0  0  0  0  0  0  0  0  0  0  0  0
   -2.1978   -2.4313   -1.2475 H   0  0  0  0  0  0  0  0  0  0  0  0
   -1.7751   -3.2458    0.3622 H   0  0  0  0  0  0  0  0  0  0  0  0
    4.8012   -0.2737   -0.9156 H   0  0  0  0  0  0  0  0  0  0  0  0
    3.3294   -1.3723   -1.1090 H   0  0  0  0  0  0  0  0  0  0  0  0
   -2.9837    3.0281   -0.1006 H   0  0  0  0  0  0  0  0  0  0  0  0
   -2.6294    2.3693    1.5338 H   0  0  0  0  0  0  0  0  0  0  0  0
   -4.2232    2.1213    0.7910 H   0  0  0  0  0  0  0  0  0  0  0  0
  1  6  1  0  0  0  0
  1 13  1  0  0  0  0
  2 13  2  0  0  0  0
  3  4  1  0  0  0  0
  3  5  1  0  0  0  0
  3  9  1  0  0  0  0
  3 15  1  0  0  0  0
  4  6  1  0  0  0  0
  4 16  1  0  0  0  0
  4 17  1  0  0  0  0
  5  7  1  0  0  0  0
  5 18  1  0  0  0  0
  5 19  1  0  0  0  0
  6  8  1  0  0  0  0
  6 20  1  0  0  0  0
  7  8  1  0  0  0  0
  7 21  1  0  0  0  0
  7 22  1  0  0  0  0
  8 11  2  0  0  0  0
  9 10  1  0  0  0  0
  9 12  2  0  0  0  0
 10 23  1  0  0  0  0
 10 24  1  0  0  0  0
 10 25  1  0  0  0  0
 11 26  1  0  0  0  0
 11 27  1  0  0  0  0
 12 28  1  0  0  0  0
 12 29  1  0  0  0  0
 13 14  1  0  0  0  0
 14 30  1  0  0  0  0
 14 31  1  0  0  0  0
 14 32  1  0  0  0  0
M  END
> <PUBCHEM_COMPOUND_CID>
524461

> <PUBCHEM_CONFORMER_RMSD>
0.6

> <PUBCHEM_CONFORMER_DIVERSEORDER>
1
30
50
69
42
89
49
56
53
39
59
91
34
32
15
21
94
73
63
61
31
87
88
68
25
2
41
6
16
27
26
74
20
92
95
18
58
14
45
77
66
80
79
7
19
76
85
33
78
52
84
10
43
65
36
38
75
55
29
22
13
24
57
86
12
83
35
62
37
90
40
48
4
51
81
8
64
47
44
72
93
23
60
5
54
17
3
28
82
71
11
46
67
70
9

> <PUBCHEM_MMFF94_PARTIAL_CHARGES>
16
1 -0.43
10 0.14
11 -0.3
12 -0.3
13 0.66
14 0.06
2 -0.57
26 0.15
27 0.15
28 0.15
29 0.15
3 0.14
6 0.42
7 0.14
8 -0.28
9 -0.28

> <PUBCHEM_EFFECTIVE_ROTOR_COUNT>
4

> <PUBCHEM_PHARMACOPHORE_FEATURES>
2
1 2 acceptor
6 3 4 5 6 7 8 rings

> <PUBCHEM_HEAVY_ATOM_COUNT>
14

> <PUBCHEM_ATOM_DEF_STEREO_COUNT>
0

> <PUBCHEM_ATOM_UDEF_STEREO_COUNT>
2

> <PUBCHEM_BOND_DEF_STEREO_COUNT>
0

> <PUBCHEM_BOND_UDEF_STEREO_COUNT>
0

> <PUBCHEM_ISOTOPIC_ATOM_COUNT>
0

> <PUBCHEM_COMPONENT_COUNT>
1

> <PUBCHEM_CACTVS_TAUTO_COUNT>
1

> <PUBCHEM_CONFORMER_ID>
000800AD00000001

> <PUBCHEM_MMFF94_ENERGY>
22.5618

> <PUBCHEM_FEATURE_SELFOVERLAP>
10.148

> <PUBCHEM_SHAPE_FINGERPRINT>
10608611 8 18271805765451282384
10922049 32 18340216184819625659
10980938 120 17968091963308897130
11132069 177 18187358874233182660
12138202 97 18060419122887663271
12173636 292 18341888627672671646
122479 349 18413673517131271824
12491281 212 18408608045497275938
12716758 59 18341614836535014394
12808571 1 18336825277863646651
12932764 1 17749377166457532476
13380535 21 18187932746336189786
13764800 53 18335142032935665273
13839132 238 18271812276505346989
14123255 52 18338514123666768225
14993402 34 18259981565834592295
15219456 202 18272656796209647926
15279308 16 18200874105832812304
15309172 13 17749392533465408537
15775835 57 18262802861031916721
16945 1 18336251371490903142
1741750 31 18342172258744031408
18186145 218 18340205185329525748
18511873 20 18336268955461461844
19837323 101 18341893021487720015
19873495 37 18114187423239826266
201361 129 18192152590132154441
20510252 161 18269275823412934251
20524608 308 18341899618483763823
20645477 56 18341895233627882216
20653085 51 18271813414640051296
20671657 1 18263636278066572226
21501502 16 18335412483180115954
21524375 3 18335421205915308961
23236772 104 18114736144092962707
23402539 116 18201993318180189253
23557571 272 18125165085055104606
23559900 14 18272651226206738082
276578 36 18041288647061349424
305870 269 18194125110008412975
6333449 129 18338795718633135142
69090 78 18341610434135533471
7364860 26 17763748693891804479
81228 2 18043532930518898843

> <PUBCHEM_SHAPE_MULTIPOLES>
276.37
5.91
2.1
1.07
2.07
0.04
-0.1
-3.08
0.17
-1.37
-0.38
0.21
0.2
-0.14

> <PUBCHEM_SHAPE_SELFOVERLAP>
552.8

> <PUBCHEM_SHAPE_VOLUME>
161.7

> <PUBCHEM_COORDINATE_TYPE>
2
5
10

$$$$
