524504
  -OEChem-11232109003D

 21 22  0     1  0  0  0  0  0999 V2000
    0.9856   -1.6620    0.1074 N   0  0  0  0  0  0  0  0  0  0  0  0
    1.6340    0.6239   -0.3689 C   0  0  1  0  0  0  0  0  0  0  0  0
    2.0876   -0.8599   -0.4117 C   0  0  0  0  0  0  0  0  0  0  0  0
    0.1478    0.4695   -0.2304 C   0  0  0  0  0  0  0  0  0  0  0  0
   -0.1576   -0.8695    0.0291 C   0  0  0  0  0  0  0  0  0  0  0  0
    2.2419    1.3780    0.8081 C   0  0  0  0  0  0  0  0  0  0  0  0
   -0.8410    1.4363   -0.3026 C   0  0  0  0  0  0  0  0  0  0  0  0
   -1.4633   -1.2615    0.2670 C   0  0  0  0  0  0  0  0  0  0  0  0
   -2.1632    1.0420   -0.0924 C   0  0  0  0  0  0  0  0  0  0  0  0
   -2.4719   -0.2969    0.1944 C   0  0  0  0  0  0  0  0  0  0  0  0
    1.8923    1.1220   -1.3100 H   0  0  0  0  0  0  0  0  0  0  0  0
    2.2781   -1.1564   -1.4510 H   0  0  0  0  0  0  0  0  0  0  0  0
    3.0063   -1.0375    0.1572 H   0  0  0  0  0  0  0  0  0  0  0  0
    0.9457   -2.6678    0.0202 H   0  0  0  0  0  0  0  0  0  0  0  0
    3.3320    1.4226    0.7139 H   0  0  0  0  0  0  0  0  0  0  0  0
    1.8658    2.4059    0.8515 H   0  0  0  0  0  0  0  0  0  0  0  0
    2.0045    0.8984    1.7646 H   0  0  0  0  0  0  0  0  0  0  0  0
   -0.5999    2.4736   -0.5077 H   0  0  0  0  0  0  0  0  0  0  0  0
   -1.7075   -2.2926    0.5008 H   0  0  0  0  0  0  0  0  0  0  0  0
   -2.9606    1.7785   -0.1411 H   0  0  0  0  0  0  0  0  0  0  0  0
   -3.5056   -0.5840    0.3672 H   0  0  0  0  0  0  0  0  0  0  0  0
  1  3  1  0  0  0  0
  1  5  1  0  0  0  0
  1 14  1  0  0  0  0
  2  3  1  0  0  0  0
  2  4  1  0  0  0  0
  2  6  1  0  0  0  0
  2 11  1  0  0  0  0
  3 12  1  0  0  0  0
  3 13  1  0  0  0  0
  4  5  1  0  0  0  0
  4  7  2  0  0  0  0
  5  8  2  0  0  0  0
  6 15  1  0  0  0  0
  6 16  1  0  0  0  0
  6 17  1  0  0  0  0
  7  9  1  0  0  0  0
  7 18  1  0  0  0  0
  8 10  1  0  0  0  0
  8 19  1  0  0  0  0
  9 10  2  0  0  0  0
  9 20  1  0  0  0  0
 10 21  1  0  0  0  0
M  END
> <PUBCHEM_COMPOUND_CID>
524504

> <PUBCHEM_CONFORMER_RMSD>
0.4

> <PUBCHEM_CONFORMER_DIVERSEORDER>
2
1

> <PUBCHEM_MMFF94_PARTIAL_CHARGES>
14
1 -0.87
10 -0.15
14 0.4
18 0.15
19 0.15
2 0.14
20 0.15
21 0.15
3 0.37
4 -0.14
5 0.1
7 -0.15
8 -0.15
9 -0.15

> <PUBCHEM_EFFECTIVE_ROTOR_COUNT>
0.6

> <PUBCHEM_PHARMACOPHORE_FEATURES>
4
1 1 cation
1 1 donor
5 1 2 3 4 5 rings
6 4 5 7 8 9 10 rings

> <PUBCHEM_HEAVY_ATOM_COUNT>
10

> <PUBCHEM_ATOM_DEF_STEREO_COUNT>
0

> <PUBCHEM_ATOM_UDEF_STEREO_COUNT>
1

> <PUBCHEM_BOND_DEF_STEREO_COUNT>
0

> <PUBCHEM_BOND_UDEF_STEREO_COUNT>
0

> <PUBCHEM_ISOTOPIC_ATOM_COUNT>
0

> <PUBCHEM_COMPONENT_COUNT>
1

> <PUBCHEM_CACTVS_TAUTO_COUNT>
1

> <PUBCHEM_CONFORMER_ID>
000800D800000002

> <PUBCHEM_MMFF94_ENERGY>
37.0866

> <PUBCHEM_FEATURE_SELFOVERLAP>
20.387

> <PUBCHEM_SHAPE_FINGERPRINT>
10857977 72 18189055459382092905
12423570 1 17979080705665363843
12524768 44 18411141311882411967
12897270 3 18409732854619490975
16945 1 18339080359032280943
19973954 147 18412266116388094609
21040471 1 18407763642036640620
23552423 10 18187091645451989718
241688 4 18261680255148647353
2748010 2 18409172120916803575
29004967 10 18261682574562635139
369184 2 18273212023421539281
5084963 1 18187373081789715013
53812653 166 18339360751846129104

> <PUBCHEM_SHAPE_MULTIPOLES>
200.81
3.32
1.73
0.73
0.15
0.08
0.04
-0.43
0.28
-0.18
0.08
-0.17
-0.1
0.4

> <PUBCHEM_SHAPE_SELFOVERLAP>
430.671

> <PUBCHEM_SHAPE_VOLUME>
112.9

> <PUBCHEM_COORDINATE_TYPE>
2
5
10

$$$$
