525032
  -OEChem-11232108493D

 51 50  0     0  0  0  0  0  0999 V2000
   -0.0490   -2.2643   -0.3788 C   0  0  0  0  0  0  0  0  0  0  0  0
    1.2590   -1.5422   -0.7136 C   0  0  0  0  0  0  0  0  0  0  0  0
   -1.1120   -1.9993   -1.4479 C   0  0  0  0  0  0  0  0  0  0  0  0
    2.3372   -1.7119    0.3611 C   0  0  0  0  0  0  0  0  0  0  0  0
   -2.4458   -2.7106   -1.1836 C   0  0  0  0  0  0  0  0  0  0  0  0
    3.6189   -0.9304    0.0639 C   0  0  0  0  0  0  0  0  0  0  0  0
   -3.1339   -2.3593    0.1415 C   0  0  0  0  0  0  0  0  0  0  0  0
   -2.1620    2.2805    1.2422 C   0  0  0  0  0  0  0  0  0  0  0  0
   -1.3912    2.1833   -0.0794 C   0  0  0  0  0  0  0  0  0  0  0  0
    4.6710   -1.0588    1.1686 C   0  0  0  0  0  0  0  0  0  0  0  0
   -3.3865    1.3602    1.3106 C   0  0  0  0  0  0  0  0  0  0  0  0
   -0.1720    3.1093   -0.0765 C   0  0  0  0  0  0  0  0  0  0  0  0
   -3.5046   -0.9080    0.2410 C   0  0  0  0  0  0  0  0  0  0  0  0
   -3.0294   -0.0917    1.1928 C   0  0  0  0  0  0  0  0  0  0  0  0
    0.6569    3.0263   -1.3601 C   0  0  0  0  0  0  0  0  0  0  0  0
    5.9594   -0.3078    0.8697 C   0  0  0  0  0  0  0  0  0  0  0  0
    1.8838    3.9246   -1.3516 C   0  0  0  0  0  0  0  0  0  0  0  0
   -0.3994   -1.9167    0.5987 H   0  0  0  0  0  0  0  0  0  0  0  0
    0.1347   -3.3418   -0.2957 H   0  0  0  0  0  0  0  0  0  0  0  0
    1.6444   -1.9104   -1.6722 H   0  0  0  0  0  0  0  0  0  0  0  0
    1.0548   -0.4724   -0.8438 H   0  0  0  0  0  0  0  0  0  0  0  0
   -1.2830   -0.9209   -1.5423 H   0  0  0  0  0  0  0  0  0  0  0  0
   -0.7324   -2.3361   -2.4208 H   0  0  0  0  0  0  0  0  0  0  0  0
    1.9340   -1.3809    1.3264 H   0  0  0  0  0  0  0  0  0  0  0  0
    2.5770   -2.7770    0.4667 H   0  0  0  0  0  0  0  0  0  0  0  0
   -3.1272   -2.4885   -2.0150 H   0  0  0  0  0  0  0  0  0  0  0  0
   -2.2766   -3.7946   -1.2068 H   0  0  0  0  0  0  0  0  0  0  0  0
    3.3727    0.1298   -0.0743 H   0  0  0  0  0  0  0  0  0  0  0  0
    4.0434   -1.2833   -0.8840 H   0  0  0  0  0  0  0  0  0  0  0  0
   -2.5101   -2.6716    0.9866 H   0  0  0  0  0  0  0  0  0  0  0  0
   -4.0576   -2.9465    0.2171 H   0  0  0  0  0  0  0  0  0  0  0  0
   -2.4959    3.3150    1.3902 H   0  0  0  0  0  0  0  0  0  0  0  0
   -1.4868    2.0465    2.0754 H   0  0  0  0  0  0  0  0  0  0  0  0
   -2.0528    2.4439   -0.9139 H   0  0  0  0  0  0  0  0  0  0  0  0
   -1.0494    1.1558   -0.2425 H   0  0  0  0  0  0  0  0  0  0  0  0
    4.9080   -2.1182    1.3225 H   0  0  0  0  0  0  0  0  0  0  0  0
    4.2544   -0.6861    2.1119 H   0  0  0  0  0  0  0  0  0  0  0  0
   -4.1006    1.6512    0.5306 H   0  0  0  0  0  0  0  0  0  0  0  0
   -3.8909    1.5140    2.2720 H   0  0  0  0  0  0  0  0  0  0  0  0
    0.4697    2.8581    0.7772 H   0  0  0  0  0  0  0  0  0  0  0  0
   -0.5035    4.1447    0.0705 H   0  0  0  0  0  0  0  0  0  0  0  0
   -4.1944   -0.5213   -0.5047 H   0  0  0  0  0  0  0  0  0  0  0  0
   -2.3461   -0.4863    1.9410 H   0  0  0  0  0  0  0  0  0  0  0  0
    0.9805    1.9908   -1.5175 H   0  0  0  0  0  0  0  0  0  0  0  0
    0.0266    3.2950   -2.2161 H   0  0  0  0  0  0  0  0  0  0  0  0
    5.7669    0.7625    0.7454 H   0  0  0  0  0  0  0  0  0  0  0  0
    6.6725   -0.4335    1.6903 H   0  0  0  0  0  0  0  0  0  0  0  0
    6.4250   -0.6818   -0.0476 H   0  0  0  0  0  0  0  0  0  0  0  0
    2.4346    3.8254   -2.2921 H   0  0  0  0  0  0  0  0  0  0  0  0
    1.5979    4.9743   -1.2321 H   0  0  0  0  0  0  0  0  0  0  0  0
    2.5576    3.6564   -0.5317 H   0  0  0  0  0  0  0  0  0  0  0  0
  1  2  1  0  0  0  0
  1  3  1  0  0  0  0
  1 18  1  0  0  0  0
  1 19  1  0  0  0  0
  2  4  1  0  0  0  0
  2 20  1  0  0  0  0
  2 21  1  0  0  0  0
  3  5  1  0  0  0  0
  3 22  1  0  0  0  0
  3 23  1  0  0  0  0
  4  6  1  0  0  0  0
  4 24  1  0  0  0  0
  4 25  1  0  0  0  0
  5  7  1  0  0  0  0
  5 26  1  0  0  0  0
  5 27  1  0  0  0  0
  6 10  1  0  0  0  0
  6 28  1  0  0  0  0
  6 29  1  0  0  0  0
  7 13  1  0  0  0  0
  7 30  1  0  0  0  0
  7 31  1  0  0  0  0
  8  9  1  0  0  0  0
  8 11  1  0  0  0  0
  8 32  1  0  0  0  0
  8 33  1  0  0  0  0
  9 12  1  0  0  0  0
  9 34  1  0  0  0  0
  9 35  1  0  0  0  0
 10 16  1  0  0  0  0
 10 36  1  0  0  0  0
 10 37  1  0  0  0  0
 11 14  1  0  0  0  0
 11 38  1  0  0  0  0
 11 39  1  0  0  0  0
 12 15  1  0  0  0  0
 12 40  1  0  0  0  0
 12 41  1  0  0  0  0
 13 14  2  3  0  0  0
 13 42  1  0  0  0  0
 14 43  1  0  0  0  0
 15 17  1  0  0  0  0
 15 44  1  0  0  0  0
 15 45  1  0  0  0  0
 16 46  1  0  0  0  0
 16 47  1  0  0  0  0
 16 48  1  0  0  0  0
 17 49  1  0  0  0  0
 17 50  1  0  0  0  0
 17 51  1  0  0  0  0
M  END
> <PUBCHEM_COMPOUND_CID>
525032

> <PUBCHEM_CONFORMER_RMSD>
1.4

> <PUBCHEM_CONFORMER_DIVERSEORDER>
1
23
12
17
21
3
5
32
10
28
19
34
7
6
2
8
15
25
14
18
11
26
24
4
33
22
31
9
27
20
13
30
16
29

> <PUBCHEM_MMFF94_PARTIAL_CHARGES>
6
11 0.14
13 -0.29
14 -0.29
42 0.15
43 0.15
7 0.14

> <PUBCHEM_EFFECTIVE_ROTOR_COUNT>
13

> <PUBCHEM_PHARMACOPHORE_FEATURES>
4
1 16 hydrophobe
1 17 hydrophobe
3 8 11 14 hydrophobe
3 9 12 15 hydrophobe

> <PUBCHEM_HEAVY_ATOM_COUNT>
17

> <PUBCHEM_ATOM_DEF_STEREO_COUNT>
0

> <PUBCHEM_ATOM_UDEF_STEREO_COUNT>
0

> <PUBCHEM_BOND_DEF_STEREO_COUNT>
0

> <PUBCHEM_BOND_UDEF_STEREO_COUNT>
1

> <PUBCHEM_ISOTOPIC_ATOM_COUNT>
0

> <PUBCHEM_COMPONENT_COUNT>
1

> <PUBCHEM_CACTVS_TAUTO_COUNT>
1

> <PUBCHEM_CONFORMER_ID>
000802E800000001

> <PUBCHEM_MMFF94_ENERGY>
-5.7934

> <PUBCHEM_FEATURE_SELFOVERLAP>
20.31

> <PUBCHEM_SHAPE_FINGERPRINT>
10087517 78 18341320185352949090
11595378 159 18263624218099085938
13941206 138 17178854034590020196
15322534 239 17688330279608556260
16120349 306 18052832630090233280
20765182 5 18341049709518594136
21202864 24 18272083843182545994
3524813 1 17917139529263006715
445580 44 18117810293026431000
5282940 2 18120104037137670996
57091435 65 17908143522624168121
7064713 232 18129953268920284712
9925002 15 17485916738316970295

> <PUBCHEM_SHAPE_MULTIPOLES>
349.85
8.74
5.11
1.49
12.55
4.64
-0.11
-3.89
4.69
-0.88
-2.36
-0.18
0.44
-2.42

> <PUBCHEM_SHAPE_SELFOVERLAP>
628.524

> <PUBCHEM_SHAPE_VOLUME>
224.2

> <PUBCHEM_COORDINATE_TYPE>
2
5
10

$$$$
