525372
  -OEChem-11232109223D

 20 20  0     1  0  0  0  0  0999 V2000
   -0.2870    1.2952    0.7967 S   0  0  0  0  0  0  0  0  0  0  0  0
    1.6857   -0.9915    0.6873 S   0  0  0  0  0  0  0  0  0  0  0  0
   -1.2707    0.2114   -0.3005 C   0  0  1  0  0  0  0  0  0  0  0  0
   -0.9971   -1.2743   -0.0405 C   0  0  0  0  0  0  0  0  0  0  0  0
    0.4178   -1.7295   -0.3832 C   0  0  0  0  0  0  0  0  0  0  0  0
    1.4029    0.7766    0.3627 C   0  0  1  0  0  0  0  0  0  0  0  0
   -2.7485    0.5284   -0.0695 C   0  0  0  0  0  0  0  0  0  0  0  0
    1.7969    1.1836   -1.0530 C   0  0  0  0  0  0  0  0  0  0  0  0
   -1.0341    0.4597   -1.3406 H   0  0  0  0  0  0  0  0  0  0  0  0
   -1.6864   -1.8641   -0.6597 H   0  0  0  0  0  0  0  0  0  0  0  0
   -1.2361   -1.5357    0.9993 H   0  0  0  0  0  0  0  0  0  0  0  0
    0.4820   -2.8153   -0.2544 H   0  0  0  0  0  0  0  0  0  0  0  0
    0.6540   -1.5247   -1.4320 H   0  0  0  0  0  0  0  0  0  0  0  0
    2.0631    1.3134    1.0520 H   0  0  0  0  0  0  0  0  0  0  0  0
   -2.9699    1.5810   -0.2796 H   0  0  0  0  0  0  0  0  0  0  0  0
   -3.3760   -0.0726   -0.7373 H   0  0  0  0  0  0  0  0  0  0  0  0
   -3.0582    0.3087    0.9587 H   0  0  0  0  0  0  0  0  0  0  0  0
    1.1972    0.6968   -1.8274 H   0  0  0  0  0  0  0  0  0  0  0  0
    1.6939    2.2667   -1.1874 H   0  0  0  0  0  0  0  0  0  0  0  0
    2.8477    0.9390   -1.2474 H   0  0  0  0  0  0  0  0  0  0  0  0
  1  3  1  0  0  0  0
  1  6  1  0  0  0  0
  2  5  1  0  0  0  0
  2  6  1  0  0  0  0
  3  4  1  0  0  0  0
  3  7  1  0  0  0  0
  3  9  1  0  0  0  0
  4  5  1  0  0  0  0
  4 10  1  0  0  0  0
  4 11  1  0  0  0  0
  5 12  1  0  0  0  0
  5 13  1  0  0  0  0
  6  8  1  0  0  0  0
  6 14  1  0  0  0  0
  7 15  1  0  0  0  0
  7 16  1  0  0  0  0
  7 17  1  0  0  0  0
  8 18  1  0  0  0  0
  8 19  1  0  0  0  0
  8 20  1  0  0  0  0
M  END
> <PUBCHEM_COMPOUND_CID>
525372

> <PUBCHEM_CONFORMER_RMSD>
0.4

> <PUBCHEM_CONFORMER_DIVERSEORDER>
6
8
9
1
5
4
10
11
7
2
3
12

> <PUBCHEM_MMFF94_PARTIAL_CHARGES>
5
1 -0.46
2 -0.46
3 0.23
5 0.23
6 0.46

> <PUBCHEM_EFFECTIVE_ROTOR_COUNT>
1.2

> <PUBCHEM_PHARMACOPHORE_FEATURES>
1
6 1 2 3 4 5 6 rings

> <PUBCHEM_HEAVY_ATOM_COUNT>
8

> <PUBCHEM_ATOM_DEF_STEREO_COUNT>
0

> <PUBCHEM_ATOM_UDEF_STEREO_COUNT>
2

> <PUBCHEM_BOND_DEF_STEREO_COUNT>
0

> <PUBCHEM_BOND_UDEF_STEREO_COUNT>
0

> <PUBCHEM_ISOTOPIC_ATOM_COUNT>
0

> <PUBCHEM_COMPONENT_COUNT>
1

> <PUBCHEM_CACTVS_TAUTO_COUNT>
1

> <PUBCHEM_CONFORMER_ID>
0008043C00000006

> <PUBCHEM_MMFF94_ENERGY>
10.2807

> <PUBCHEM_FEATURE_SELFOVERLAP>
5.074

> <PUBCHEM_SHAPE_FINGERPRINT>
12716758 59 18126012808652053620
16714656 1 17833563661791664454
18185500 45 18411972564079197362
20653085 51 17606986141442332852
21040471 1 18340481282827424425
21922407 69 15721892134052985417
23235685 24 18412821369839073880
23552423 10 18333726931453652739
241688 4 17330559743736544906
24536 1 17533477165831917962
29004967 10 17459184101609488168
4369600 1 17989209269378665928
5084963 1 18260535715283966235
528862 383 18260264135679881514
66348 1 18124305266772058785

> <PUBCHEM_SHAPE_MULTIPOLES>
172.34
2.91
1.84
0.97
1.38
0.38
-0.03
-0.47
-0.18
-0.46
-0.07
-0.34
-0.21
-0.39

> <PUBCHEM_SHAPE_SELFOVERLAP>
298.391

> <PUBCHEM_SHAPE_VOLUME>
113.6

> <PUBCHEM_COORDINATE_TYPE>
2
5
10

$$$$
