525446
  -OEChem-11232109483D

 14 14  0     1  0  0  0  0  0999 V2000
   -0.0167   -1.5108   -0.0164 S   0  0  0  0  0  0  0  0  0  0  0  0
    1.8629   -0.7104    0.1627 S   0  0  0  0  0  0  0  0  0  0  0  0
   -0.8898    0.0426   -0.3833 C   0  0  2  0  0  0  0  0  0  0  0  0
   -0.0545    1.1636    0.2399 C   0  0  0  0  0  0  0  0  0  0  0  0
    1.4046    1.0080   -0.1719 C   0  0  0  0  0  0  0  0  0  0  0  0
   -2.3065    0.0070    0.1690 C   0  0  0  0  0  0  0  0  0  0  0  0
   -0.9270    0.1632   -1.4721 H   0  0  0  0  0  0  0  0  0  0  0  0
   -0.1409    1.1563    1.3356 H   0  0  0  0  0  0  0  0  0  0  0  0
   -0.4292    2.1399   -0.0904 H   0  0  0  0  0  0  0  0  0  0  0  0
    1.5353    1.2130   -1.2395 H   0  0  0  0  0  0  0  0  0  0  0  0
    2.0510    1.6882    0.3899 H   0  0  0  0  0  0  0  0  0  0  0  0
   -2.8234    0.9476   -0.0510 H   0  0  0  0  0  0  0  0  0  0  0  0
   -2.8892   -0.8021   -0.2848 H   0  0  0  0  0  0  0  0  0  0  0  0
   -2.3193   -0.1294    1.2564 H   0  0  0  0  0  0  0  0  0  0  0  0
  1  2  1  0  0  0  0
  1  3  1  0  0  0  0
  2  5  1  0  0  0  0
  3  4  1  0  0  0  0
  3  6  1  0  0  0  0
  3  7  1  0  0  0  0
  4  5  1  0  0  0  0
  4  8  1  0  0  0  0
  4  9  1  0  0  0  0
  5 10  1  0  0  0  0
  5 11  1  0  0  0  0
  6 12  1  0  0  0  0
  6 13  1  0  0  0  0
  6 14  1  0  0  0  0
M  END
> <PUBCHEM_COMPOUND_CID>
525446

> <PUBCHEM_CONFORMER_RMSD>
0.4

> <PUBCHEM_CONFORMER_DIVERSEORDER>
1
2

> <PUBCHEM_MMFF94_PARTIAL_CHARGES>
4
1 -0.23
2 -0.23
3 0.23
5 0.23

> <PUBCHEM_EFFECTIVE_ROTOR_COUNT>
1

> <PUBCHEM_PHARMACOPHORE_FEATURES>
1
5 1 2 3 4 5 rings

> <PUBCHEM_HEAVY_ATOM_COUNT>
6

> <PUBCHEM_ATOM_DEF_STEREO_COUNT>
0

> <PUBCHEM_ATOM_UDEF_STEREO_COUNT>
1

> <PUBCHEM_BOND_DEF_STEREO_COUNT>
0

> <PUBCHEM_BOND_UDEF_STEREO_COUNT>
0

> <PUBCHEM_ISOTOPIC_ATOM_COUNT>
0

> <PUBCHEM_COMPONENT_COUNT>
1

> <PUBCHEM_CACTVS_TAUTO_COUNT>
1

> <PUBCHEM_CONFORMER_ID>
0008048600000001

> <PUBCHEM_MMFF94_ENERGY>
3.9954

> <PUBCHEM_FEATURE_SELFOVERLAP>
5.074

> <PUBCHEM_SHAPE_FINGERPRINT>
139733 1 9294992583726693892
16714656 1 18340208496902064358
18185500 45 18340761555260959814
20096714 4 18339642351176314246
21040471 1 18267021841565860820
23552423 10 17829340085716793918
29004967 10 18333734584990123521

> <PUBCHEM_SHAPE_MULTIPOLES>
131.18
2.56
1.53
0.69
0.63
0.18
0
0.08
0.15
-0.35
0.02
0
0.01
-0.07

> <PUBCHEM_SHAPE_SELFOVERLAP>
222.913

> <PUBCHEM_SHAPE_VOLUME>
89

> <PUBCHEM_COORDINATE_TYPE>
2
5
10

$$$$
