5260295
  -OEChem-11232108443D

 37 38  0     0  0  0  0  0  0999 V2000
   -1.6888   -0.5843   -0.5156 O   0  0  0  0  0  0  0  0  0  0  0  0
   -3.5705   -1.8941   -0.4584 O   0  0  0  0  0  0  0  0  0  0  0  0
   -1.2934    0.6907    0.0288 C   0  0  0  0  0  0  0  0  0  0  0  0
    1.6762    0.4808    0.1943 C   0  0  0  0  0  0  0  0  0  0  0  0
   -0.5700    0.4617    1.3680 C   0  0  0  0  0  0  0  0  0  0  0  0
   -0.3764    1.4033   -0.9726 C   0  0  0  0  0  0  0  0  0  0  0  0
    0.7686   -0.2564    1.1857 C   0  0  0  0  0  0  0  0  0  0  0  0
    0.9631    0.6852   -1.1471 C   0  0  0  0  0  0  0  0  0  0  0  0
    2.9878   -0.2773   -0.0024 C   0  0  0  0  0  0  0  0  0  0  0  0
   -2.6147    1.4267    0.2033 C   0  0  0  0  0  0  0  0  0  0  0  0
   -3.5899    0.3177    0.5264 C   0  0  0  0  0  0  0  0  0  0  0  0
    3.7042   -0.4355    1.3493 C   0  0  0  0  0  0  0  0  0  0  0  0
    2.7003   -1.6700   -0.5885 C   0  0  0  0  0  0  0  0  0  0  0  0
    3.8974    0.4999   -0.9687 C   0  0  0  0  0  0  0  0  0  0  0  0
   -2.9938   -0.8485   -0.2025 C   0  0  0  0  0  0  0  0  0  0  0  0
    1.8941    1.4738    0.6132 H   0  0  0  0  0  0  0  0  0  0  0  0
   -1.1876   -0.1408    2.0449 H   0  0  0  0  0  0  0  0  0  0  0  0
   -0.3944    1.4256    1.8625 H   0  0  0  0  0  0  0  0  0  0  0  0
   -0.1930    2.4328   -0.6400 H   0  0  0  0  0  0  0  0  0  0  0  0
   -0.8623    1.4596   -1.9549 H   0  0  0  0  0  0  0  0  0  0  0  0
    1.2316   -0.3244    2.1752 H   0  0  0  0  0  0  0  0  0  0  0  0
    0.5443   -1.2767    0.8624 H   0  0  0  0  0  0  0  0  0  0  0  0
    0.7558   -0.2614   -1.6541 H   0  0  0  0  0  0  0  0  0  0  0  0
    1.5647    1.2933   -1.8301 H   0  0  0  0  0  0  0  0  0  0  0  0
   -2.9211    1.8989   -0.7392 H   0  0  0  0  0  0  0  0  0  0  0  0
   -2.5875    2.2083    0.9687 H   0  0  0  0  0  0  0  0  0  0  0  0
   -4.5909    0.5445    0.1523 H   0  0  0  0  0  0  0  0  0  0  0  0
   -3.6200    0.0970    1.5969 H   0  0  0  0  0  0  0  0  0  0  0  0
    3.2001   -1.1433    2.0149 H   0  0  0  0  0  0  0  0  0  0  0  0
    4.7198   -0.8239    1.2063 H   0  0  0  0  0  0  0  0  0  0  0  0
    3.7941    0.5252    1.8686 H   0  0  0  0  0  0  0  0  0  0  0  0
    2.2393   -1.6455   -1.5789 H   0  0  0  0  0  0  0  0  0  0  0  0
    2.1010   -2.3087    0.0649 H   0  0  0  0  0  0  0  0  0  0  0  0
    3.6496   -2.2056   -0.7247 H   0  0  0  0  0  0  0  0  0  0  0  0
    4.0055    1.5461   -0.6613 H   0  0  0  0  0  0  0  0  0  0  0  0
    4.9028    0.0623   -0.9909 H   0  0  0  0  0  0  0  0  0  0  0  0
    3.5344    0.4779   -2.0011 H   0  0  0  0  0  0  0  0  0  0  0  0
  1  3  1  0  0  0  0
  1 15  1  0  0  0  0
  2 15  2  0  0  0  0
  3  5  1  0  0  0  0
  3  6  1  0  0  0  0
  3 10  1  0  0  0  0
  4  7  1  0  0  0  0
  4  8  1  0  0  0  0
  4  9  1  0  0  0  0
  4 16  1  0  0  0  0
  5  7  1  0  0  0  0
  5 17  1  0  0  0  0
  5 18  1  0  0  0  0
  6  8  1  0  0  0  0
  6 19  1  0  0  0  0
  6 20  1  0  0  0  0
  7 21  1  0  0  0  0
  7 22  1  0  0  0  0
  8 23  1  0  0  0  0
  8 24  1  0  0  0  0
  9 12  1  0  0  0  0
  9 13  1  0  0  0  0
  9 14  1  0  0  0  0
 10 11  1  0  0  0  0
 10 25  1  0  0  0  0
 10 26  1  0  0  0  0
 11 15  1  0  0  0  0
 11 27  1  0  0  0  0
 11 28  1  0  0  0  0
 12 29  1  0  0  0  0
 12 30  1  0  0  0  0
 12 31  1  0  0  0  0
 13 32  1  0  0  0  0
 13 33  1  0  0  0  0
 13 34  1  0  0  0  0
 14 35  1  0  0  0  0
 14 36  1  0  0  0  0
 14 37  1  0  0  0  0
M  END
> <PUBCHEM_COMPOUND_CID>
5260295

> <PUBCHEM_CONFORMER_RMSD>
0.6

> <PUBCHEM_CONFORMER_DIVERSEORDER>
1
2
3

> <PUBCHEM_MMFF94_PARTIAL_CHARGES>
5
1 -0.43
11 0.06
15 0.66
2 -0.57
3 0.28

> <PUBCHEM_EFFECTIVE_ROTOR_COUNT>
2.6

> <PUBCHEM_PHARMACOPHORE_FEATURES>
4
1 2 acceptor
4 9 12 13 14 hydrophobe
5 1 3 10 11 15 rings
6 3 4 5 6 7 8 rings

> <PUBCHEM_HEAVY_ATOM_COUNT>
15

> <PUBCHEM_ATOM_DEF_STEREO_COUNT>
0

> <PUBCHEM_ATOM_UDEF_STEREO_COUNT>
0

> <PUBCHEM_BOND_DEF_STEREO_COUNT>
0

> <PUBCHEM_BOND_UDEF_STEREO_COUNT>
0

> <PUBCHEM_ISOTOPIC_ATOM_COUNT>
0

> <PUBCHEM_COMPONENT_COUNT>
1

> <PUBCHEM_CACTVS_TAUTO_COUNT>
2

> <PUBCHEM_CONFORMER_ID>
0050440700000001

> <PUBCHEM_MMFF94_ENERGY>
38.5063

> <PUBCHEM_FEATURE_SELFOVERLAP>
20.306

> <PUBCHEM_SHAPE_FINGERPRINT>
10062212 137 17314213493365935913
11132069 177 18409725127830907040
11543360 7 18411145761600496876
11578080 2 17970879306785174261
11769659 78 18412822482193522423
12382932 28 14333405661974283205
124424 183 17060055904822962609
12500047 106 18200590289914321969
12932764 1 18261108543562272912
13296908 3 16988841674720893024
13581323 91 18343304760205589693
13705890 14 18342739594323311298
13760787 19 18201165381418276004
13760787 5 17095242505677911824
14289901 80 18272374165575615504
14350558 41 18343308062866693830
14787075 74 17129283527740113210
14993402 34 18040999569839596046
15653759 3 17703789223651736505
16945 1 18272083890010487340
17844478 74 16343990199605635104
18175812 5 16630808802748251896
18186145 218 13912602715038652896
19026448 4 17775283850588184776
19026448 5 18334859407087177408
19107657 47 14405189425966459020
19422 9 18335140873363021246
200 152 17313094242179120072
20279233 1 17632286852773377666
20281407 28 18131071541028207491
20281475 54 18411136913825364286
20361792 2 17675924296079200573
20645477 70 16081083749774488810
20671657 53 17822565105514125973
21061003 4 15985108526304812633
21524375 3 10591768662168308557
22169311 21 18130499734846907986
22485316 2 18411134718901754220
23402539 116 17676200252407901492
23402655 69 17894348843567972412
23493267 7 17059510525290566464
23557571 272 18059301967566221260
23559900 14 17988645134599469470
296302 2 18334298682026996740
3286 77 18337094740344416184
449060 23 18334012791644538303
568465 68 16271648991739630391
633830 44 17023475144149911128
7364860 26 18195529422285528245
76465 3 18041264488255723906
77492 1 18186524297504830661
8030462 33 16588314821976784992

> <PUBCHEM_SHAPE_MULTIPOLES>
296.95
6.94
1.46
1.25
0.57
0.25
-0.23
1.7
0.22
-0.59
0.41
0.54
0.02
-0.61

> <PUBCHEM_SHAPE_SELFOVERLAP>
611.943

> <PUBCHEM_SHAPE_VOLUME>
171.6

> <PUBCHEM_COORDINATE_TYPE>
2
5
10

$$$$
