526152
  -OEChem-11232109033D

 29 28  0     1  0  0  0  0  0999 V2000
   -2.1369   -0.3251   -0.3003 O   0  0  0  0  0  0  0  0  0  0  0  0
    4.3035    0.2198   -0.4144 O   0  0  0  0  0  0  0  0  0  0  0  0
    2.9485   -1.2225    0.7708 O   0  0  0  0  0  0  0  0  0  0  0  0
   -3.9544   -0.6941    1.0771 O   0  0  0  0  0  0  0  0  0  0  0  0
   -0.4399    1.3795   -0.1549 C   0  0  0  0  0  0  0  0  0  0  0  0
   -1.8327    0.9313    0.2990 C   0  0  1  0  0  0  0  0  0  0  0  0
    0.6449    0.3621    0.2251 C   0  0  0  0  0  0  0  0  0  0  0  0
    2.0347    0.7879   -0.2492 C   0  0  0  0  0  0  0  0  0  0  0  0
   -2.8970    1.9412   -0.1096 C   0  0  0  0  0  0  0  0  0  0  0  0
    3.1188   -0.2002    0.1206 C   0  0  0  0  0  0  0  0  0  0  0  0
   -3.3527   -0.8569    0.0243 C   0  0  0  0  0  0  0  0  0  0  0  0
   -3.8627   -1.6876   -1.1142 C   0  0  0  0  0  0  0  0  0  0  0  0
    5.4257   -0.6354   -0.1743 C   0  0  0  0  0  0  0  0  0  0  0  0
   -0.1999    2.3548    0.2849 H   0  0  0  0  0  0  0  0  0  0  0  0
   -0.4333    1.4989   -1.2459 H   0  0  0  0  0  0  0  0  0  0  0  0
   -1.8263    0.8179    1.3906 H   0  0  0  0  0  0  0  0  0  0  0  0
    0.4086   -0.6188   -0.2055 H   0  0  0  0  0  0  0  0  0  0  0  0
    0.6543    0.2300    1.3143 H   0  0  0  0  0  0  0  0  0  0  0  0
    2.2939    1.7550    0.1964 H   0  0  0  0  0  0  0  0  0  0  0  0
    2.0283    0.8917   -1.3403 H   0  0  0  0  0  0  0  0  0  0  0  0
   -3.8791    1.7065    0.3111 H   0  0  0  0  0  0  0  0  0  0  0  0
   -2.6315    2.9469    0.2327 H   0  0  0  0  0  0  0  0  0  0  0  0
   -3.0156    1.9669   -1.1988 H   0  0  0  0  0  0  0  0  0  0  0  0
   -3.1679   -2.5068   -1.3156 H   0  0  0  0  0  0  0  0  0  0  0  0
   -3.9886   -1.0620   -2.0014 H   0  0  0  0  0  0  0  0  0  0  0  0
   -4.8343   -2.1126   -0.8464 H   0  0  0  0  0  0  0  0  0  0  0  0
    5.6151   -0.7191    0.9001 H   0  0  0  0  0  0  0  0  0  0  0  0
    6.3021   -0.1885   -0.6514 H   0  0  0  0  0  0  0  0  0  0  0  0
    5.2511   -1.6218   -0.6146 H   0  0  0  0  0  0  0  0  0  0  0  0
  1  6  1  0  0  0  0
  1 11  1  0  0  0  0
  2 10  1  0  0  0  0
  2 13  1  0  0  0  0
  3 10  2  0  0  0  0
  4 11  2  0  0  0  0
  5  6  1  0  0  0  0
  5  7  1  0  0  0  0
  5 14  1  0  0  0  0
  5 15  1  0  0  0  0
  6  9  1  0  0  0  0
  6 16  1  0  0  0  0
  7  8  1  0  0  0  0
  7 17  1  0  0  0  0
  7 18  1  0  0  0  0
  8 10  1  0  0  0  0
  8 19  1  0  0  0  0
  8 20  1  0  0  0  0
  9 21  1  0  0  0  0
  9 22  1  0  0  0  0
  9 23  1  0  0  0  0
 11 12  1  0  0  0  0
 12 24  1  0  0  0  0
 12 25  1  0  0  0  0
 12 26  1  0  0  0  0
 13 27  1  0  0  0  0
 13 28  1  0  0  0  0
 13 29  1  0  0  0  0
M  END
> <PUBCHEM_COMPOUND_CID>
526152

> <PUBCHEM_CONFORMER_RMSD>
0.8

> <PUBCHEM_CONFORMER_DIVERSEORDER>
1
138
122
21
118
10
80
121
105
12
16
153
5
81
64
146
50
150
15
70
96
82
120
113
43
132
79
42
112
38
139
48
14
53
133
7
33
71
60
145
97
154
83
147
52
23
39
47
9
20
114
86
125
26
19
56
75
136
95
51
116
2
98
17
149
109
92
8
143
134
110
108
91
111
102
58
88
25
135
124
101
44
99
34
57
127
67
130
29
11
55
84
104
37
90
117
115
152
45
144
89
4
123
142
106
41
94
151
140
40
148
87
35
46
128
28
85
66
22
3
103
30
131
93
68
54
107
49
36
76
129
100
6
13
72
27
119
31
63
32
59
62
74
126
77
73
65
18
141
78
137
61
24
69

> <PUBCHEM_MMFF94_PARTIAL_CHARGES>
10
1 -0.43
10 0.66
11 0.66
12 0.06
13 0.28
2 -0.43
3 -0.57
4 -0.57
6 0.28
8 0.06

> <PUBCHEM_EFFECTIVE_ROTOR_COUNT>
7

> <PUBCHEM_PHARMACOPHORE_FEATURES>
2
1 3 acceptor
1 4 acceptor

> <PUBCHEM_HEAVY_ATOM_COUNT>
13

> <PUBCHEM_ATOM_DEF_STEREO_COUNT>
0

> <PUBCHEM_ATOM_UDEF_STEREO_COUNT>
1

> <PUBCHEM_BOND_DEF_STEREO_COUNT>
0

> <PUBCHEM_BOND_UDEF_STEREO_COUNT>
0

> <PUBCHEM_ISOTOPIC_ATOM_COUNT>
0

> <PUBCHEM_COMPONENT_COUNT>
1

> <PUBCHEM_CACTVS_TAUTO_COUNT>
1

> <PUBCHEM_CONFORMER_ID>
0008074800000001

> <PUBCHEM_MMFF94_ENERGY>
17.1539

> <PUBCHEM_FEATURE_SELFOVERLAP>
10.149

> <PUBCHEM_SHAPE_FINGERPRINT>
10680689 15 18413110545613122448
11046707 91 18130505322847351535
12757275 245 18411418427525384863
13167823 11 18334858277816720746
13675066 3 13973693831656516200
14123260 362 10809336707463171223
14576447 43 18261388966741455386
177051 138 18342455963003960212
17834072 33 18410579504975970908
18186145 218 15864074290461619508
1986462 14 18411702058538878388
200 152 18187083957766406928
20281475 54 18262512594483751152
20828058 44 18342739577059143456
20871999 31 17967243183456286413
21061003 4 17060335232142101689
22485316 2 18336825303965857096
23402539 116 17603585193163876252
23402655 69 17968375624640622660
351380 3 18411419548533318327
57265010 4 16845301548670295771
58051976 100 18333448716510165797

> <PUBCHEM_SHAPE_MULTIPOLES>
244.06
10.34
1.67
0.83
8.98
0.19
0.02
-4.34
-0.51
-1.85
-0.23
-0.46
-0.22
-0.5

> <PUBCHEM_SHAPE_SELFOVERLAP>
458.481

> <PUBCHEM_SHAPE_VOLUME>
152

> <PUBCHEM_COORDINATE_TYPE>
2
5
10

$$$$
