526195
  -OEChem-11232108483D

 22 21  0     0  0  0  0  0  0999 V2000
   -1.6991    1.6638   -0.5071 S   0  0  0  0  0  0  0  0  0  0  0  0
    2.3975   -0.3711   -0.3710 O   0  0  0  0  0  0  0  0  0  0  0  0
   -1.4007   -0.0708    0.0249 C   0  0  0  0  0  0  0  0  0  0  0  0
   -0.0061   -0.5519   -0.4364 C   0  0  0  0  0  0  0  0  0  0  0  0
   -1.5540   -0.1332    1.5495 C   0  0  0  0  0  0  0  0  0  0  0  0
   -2.4802   -0.9460   -0.6308 C   0  0  0  0  0  0  0  0  0  0  0  0
    1.1970    0.1661    0.1754 C   0  0  0  0  0  0  0  0  0  0  0  0
    3.5457    0.2431    0.1955 C   0  0  0  0  0  0  0  0  0  0  0  0
    0.0697   -0.4934   -1.5315 H   0  0  0  0  0  0  0  0  0  0  0  0
    0.0975   -1.6230   -0.2114 H   0  0  0  0  0  0  0  0  0  0  0  0
   -0.8725    0.5493    2.0687 H   0  0  0  0  0  0  0  0  0  0  0  0
   -2.5741    0.1200    1.8632 H   0  0  0  0  0  0  0  0  0  0  0  0
   -1.3465   -1.1452    1.9165 H   0  0  0  0  0  0  0  0  0  0  0  0
   -2.3653   -1.9937   -0.3286 H   0  0  0  0  0  0  0  0  0  0  0  0
   -3.4909   -0.6357   -0.3400 H   0  0  0  0  0  0  0  0  0  0  0  0
   -2.4179   -0.9154   -1.7251 H   0  0  0  0  0  0  0  0  0  0  0  0
    1.1666    1.2381   -0.0423 H   0  0  0  0  0  0  0  0  0  0  0  0
    1.2107    0.0250    1.2614 H   0  0  0  0  0  0  0  0  0  0  0  0
   -0.8307    2.2477    0.3312 H   0  0  0  0  0  0  0  0  0  0  0  0
    4.4343   -0.2019   -0.2602 H   0  0  0  0  0  0  0  0  0  0  0  0
    3.5829    0.0672    1.2750 H   0  0  0  0  0  0  0  0  0  0  0  0
    3.5490    1.3176   -0.0118 H   0  0  0  0  0  0  0  0  0  0  0  0
  1  3  1  0  0  0  0
  1 19  1  0  0  0  0
  2  7  1  0  0  0  0
  2  8  1  0  0  0  0
  3  4  1  0  0  0  0
  3  5  1  0  0  0  0
  3  6  1  0  0  0  0
  4  7  1  0  0  0  0
  4  9  1  0  0  0  0
  4 10  1  0  0  0  0
  5 11  1  0  0  0  0
  5 12  1  0  0  0  0
  5 13  1  0  0  0  0
  6 14  1  0  0  0  0
  6 15  1  0  0  0  0
  6 16  1  0  0  0  0
  7 17  1  0  0  0  0
  7 18  1  0  0  0  0
  8 20  1  0  0  0  0
  8 21  1  0  0  0  0
  8 22  1  0  0  0  0
M  END
> <PUBCHEM_COMPOUND_CID>
526195

> <PUBCHEM_CONFORMER_RMSD>
0.6

> <PUBCHEM_CONFORMER_DIVERSEORDER>
1
17
15
5
2
18
3
8
14
16
9
11
10
7
13
12
4
6

> <PUBCHEM_MMFF94_PARTIAL_CHARGES>
6
1 -0.41
19 0.18
2 -0.56
3 0.23
7 0.28
8 0.28

> <PUBCHEM_EFFECTIVE_ROTOR_COUNT>
3

> <PUBCHEM_PHARMACOPHORE_FEATURES>
2
1 2 acceptor
3 3 5 6 hydrophobe

> <PUBCHEM_HEAVY_ATOM_COUNT>
8

> <PUBCHEM_ATOM_DEF_STEREO_COUNT>
0

> <PUBCHEM_ATOM_UDEF_STEREO_COUNT>
0

> <PUBCHEM_BOND_DEF_STEREO_COUNT>
0

> <PUBCHEM_BOND_UDEF_STEREO_COUNT>
0

> <PUBCHEM_ISOTOPIC_ATOM_COUNT>
0

> <PUBCHEM_COMPONENT_COUNT>
1

> <PUBCHEM_CACTVS_TAUTO_COUNT>
1

> <PUBCHEM_CONFORMER_ID>
0008077300000001

> <PUBCHEM_MMFF94_ENERGY>
19.9513

> <PUBCHEM_FEATURE_SELFOVERLAP>
10.148

> <PUBCHEM_SHAPE_FINGERPRINT>
12932764 1 18341620291459861486
13024252 1 17312822675918788437
14390081 3 18408880703159445780
20653085 51 18125161524395399309
3248919 1 17385446509913238662
369184 2 18342175548667893803
5084963 1 18202280337832857314
5460574 1 12468632833396791806

> <PUBCHEM_SHAPE_MULTIPOLES>
162.62
4.66
1.21
1.05
5.01
0.62
0.37
0.04
-0.16
-0.94
-0.16
-0.56
-0.18
0.07

> <PUBCHEM_SHAPE_SELFOVERLAP>
280.549

> <PUBCHEM_SHAPE_VOLUME>
111.2

> <PUBCHEM_COORDINATE_TYPE>
2
5
10

$$$$
