526657
  -OEChem-11232109083D

 29 29  0     1  0  0  0  0  0999 V2000
   -3.1384    0.2308    0.5621 O   0  0  0  0  0  0  0  0  0  0  0  0
    1.0104    0.1236    0.7145 C   0  0  2  0  0  0  0  0  0  0  0  0
    0.3921    1.1652   -0.2347 C   0  0  0  0  0  0  0  0  0  0  0  0
   -1.0966    1.3538    0.0466 C   0  0  0  0  0  0  0  0  0  0  0  0
   -1.8851    0.0392   -0.1019 C   0  0  1  0  0  0  0  0  0  0  0  0
    2.3883   -0.2986    0.2036 C   0  0  0  0  0  0  0  0  0  0  0  0
    0.1211   -1.0769    0.9155 C   0  0  0  0  0  0  0  0  0  0  0  0
   -1.1663   -1.1190    0.5425 C   0  0  0  0  0  0  0  0  0  0  0  0
   -2.1772   -0.2783   -1.5719 C   0  0  0  0  0  0  0  0  0  0  0  0
    2.2595   -1.0593   -1.1129 C   0  0  0  0  0  0  0  0  0  0  0  0
    3.2922    0.9195    0.0367 C   0  0  0  0  0  0  0  0  0  0  0  0
    1.1342    0.5906    1.7015 H   0  0  0  0  0  0  0  0  0  0  0  0
    0.5056    0.9059   -1.2904 H   0  0  0  0  0  0  0  0  0  0  0  0
    0.8859    2.1348   -0.0976 H   0  0  0  0  0  0  0  0  0  0  0  0
   -1.2197    1.7545    1.0627 H   0  0  0  0  0  0  0  0  0  0  0  0
   -1.5108    2.1231   -0.6176 H   0  0  0  0  0  0  0  0  0  0  0  0
    2.8514   -0.9665    0.9423 H   0  0  0  0  0  0  0  0  0  0  0  0
    0.5463   -1.9469    1.4096 H   0  0  0  0  0  0  0  0  0  0  0  0
   -1.7315   -2.0310    0.7183 H   0  0  0  0  0  0  0  0  0  0  0  0
   -1.2634   -0.4551   -2.1484 H   0  0  0  0  0  0  0  0  0  0  0  0
   -2.8139   -1.1669   -1.6600 H   0  0  0  0  0  0  0  0  0  0  0  0
   -2.7314    0.5416   -2.0434 H   0  0  0  0  0  0  0  0  0  0  0  0
    1.9222   -0.4370   -1.9461 H   0  0  0  0  0  0  0  0  0  0  0  0
    3.2444   -1.4452   -1.4036 H   0  0  0  0  0  0  0  0  0  0  0  0
    1.5998   -1.9289   -1.0406 H   0  0  0  0  0  0  0  0  0  0  0  0
    2.9921    1.5582   -0.8001 H   0  0  0  0  0  0  0  0  0  0  0  0
    4.3200    0.5967   -0.1647 H   0  0  0  0  0  0  0  0  0  0  0  0
    3.3131    1.5259    0.9484 H   0  0  0  0  0  0  0  0  0  0  0  0
   -2.9643    0.3603    1.5104 H   0  0  0  0  0  0  0  0  0  0  0  0
  1  5  1  0  0  0  0
  1 29  1  0  0  0  0
  2  3  1  0  0  0  0
  2  6  1  0  0  0  0
  2  7  1  0  0  0  0
  2 12  1  0  0  0  0
  3  4  1  0  0  0  0
  3 13  1  0  0  0  0
  3 14  1  0  0  0  0
  4  5  1  0  0  0  0
  4 15  1  0  0  0  0
  4 16  1  0  0  0  0
  5  8  1  0  0  0  0
  5  9  1  0  0  0  0
  6 10  1  0  0  0  0
  6 11  1  0  0  0  0
  6 17  1  0  0  0  0
  7  8  2  0  0  0  0
  7 18  1  0  0  0  0
  8 19  1  0  0  0  0
  9 20  1  0  0  0  0
  9 21  1  0  0  0  0
  9 22  1  0  0  0  0
 10 23  1  0  0  0  0
 10 24  1  0  0  0  0
 10 25  1  0  0  0  0
 11 26  1  0  0  0  0
 11 27  1  0  0  0  0
 11 28  1  0  0  0  0
M  END
> <PUBCHEM_COMPOUND_CID>
526657

> <PUBCHEM_CONFORMER_RMSD>
0.4

> <PUBCHEM_CONFORMER_DIVERSEORDER>
3
4
2
1
5
6

> <PUBCHEM_MMFF94_PARTIAL_CHARGES>
8
1 -0.68
18 0.15
19 0.15
2 0.14
29 0.4
5 0.42
7 -0.29
8 -0.29

> <PUBCHEM_EFFECTIVE_ROTOR_COUNT>
1.8

> <PUBCHEM_PHARMACOPHORE_FEATURES>
4
1 1 acceptor
1 1 donor
3 6 10 11 hydrophobe
6 2 3 4 5 7 8 rings

> <PUBCHEM_HEAVY_ATOM_COUNT>
11

> <PUBCHEM_ATOM_DEF_STEREO_COUNT>
0

> <PUBCHEM_ATOM_UDEF_STEREO_COUNT>
2

> <PUBCHEM_BOND_DEF_STEREO_COUNT>
0

> <PUBCHEM_BOND_UDEF_STEREO_COUNT>
0

> <PUBCHEM_ISOTOPIC_ATOM_COUNT>
0

> <PUBCHEM_COMPONENT_COUNT>
1

> <PUBCHEM_CACTVS_TAUTO_COUNT>
1

> <PUBCHEM_CONFORMER_ID>
0008094100000003

> <PUBCHEM_MMFF94_ENERGY>
19.4902

> <PUBCHEM_FEATURE_SELFOVERLAP>
20.297

> <PUBCHEM_SHAPE_FINGERPRINT>
10353120 184 18261682480089328229
12138202 97 18188765175549147630
12524768 44 18410575106348976944
12897270 3 18413108372728740956
12932764 1 17060617806514064002
13024252 1 12757150194836327777
15310529 11 17704072876002773276
15775835 57 16877947152494271380
16945 1 18334569144443686512
17844478 74 17313111856040597417
20201158 50 18413672413646131326
20645464 45 18334857246686784288
20653085 51 18128831745542717217
21028194 46 17022903428205311562
21293036 1 18187354467665178815
22802520 49 18267318533828160966
23235685 24 18334010601158437361
23235687 12 17846774075098485894
23402539 116 18337659871977543940
23552423 10 18263924328463944586
2748010 2 17973163121199771489
29004967 10 17418372484986665674
3248919 1 18342170077127407178
369184 2 17676482856591752504
528886 8 18413106177615486874
57812782 119 11169910619194977584
6333449 129 18263923405203958722

> <PUBCHEM_SHAPE_MULTIPOLES>
220.51
4.4
1.34
1.14
0.97
0.09
-0.35
0.38
-0.57
0.18
0.03
-0.27
-0.28
0.18

> <PUBCHEM_SHAPE_SELFOVERLAP>
435.423

> <PUBCHEM_SHAPE_VOLUME>
132.1

> <PUBCHEM_COORDINATE_TYPE>
2
5
10

$$$$
