526616
  -OEChem-11232109113D

 24 25  0     0  0  0  0  0  0999 V2000
   -0.4259   -0.7482    1.2237 S   0  0  0  0  0  0  0  0  0  0  0  0
    0.3421   -2.1571   -0.0753 S   0  0  0  0  0  0  0  0  0  0  0  0
   -3.6024    0.8986   -0.4248 O   0  0  0  0  0  0  0  0  0  0  0  0
    2.2736    0.9817   -0.6024 O   0  0  0  0  0  0  0  0  0  0  0  0
   -1.9452   -0.3001    0.5068 C   0  0  0  0  0  0  0  0  0  0  0  0
   -2.3425    0.9463    0.0816 C   0  0  0  0  0  0  0  0  0  0  0  0
    1.2873   -1.1212   -1.2179 C   0  0  0  0  0  0  0  0  0  0  0  0
    2.3600   -0.3562   -0.4977 C   0  0  0  0  0  0  0  0  0  0  0  0
   -3.0310   -1.1695    0.2447 C   0  0  0  0  0  0  0  0  0  0  0  0
    3.4156   -0.7567    0.2491 C   0  0  0  0  0  0  0  0  0  0  0  0
   -1.6971    2.2686    0.0694 C   0  0  0  0  0  0  0  0  0  0  0  0
   -4.0142   -0.3923   -0.3220 C   0  0  0  0  0  0  0  0  0  0  0  0
    4.0563    0.4384    0.6542 C   0  0  0  0  0  0  0  0  0  0  0  0
    3.3234    1.4677    0.1108 C   0  0  0  0  0  0  0  0  0  0  0  0
    0.6077   -0.4487   -1.7522 H   0  0  0  0  0  0  0  0  0  0  0  0
    1.7532   -1.7710   -1.9662 H   0  0  0  0  0  0  0  0  0  0  0  0
   -3.1003   -2.2302    0.4418 H   0  0  0  0  0  0  0  0  0  0  0  0
    3.7083   -1.7700    0.4838 H   0  0  0  0  0  0  0  0  0  0  0  0
   -1.4715    2.5952    1.0893 H   0  0  0  0  0  0  0  0  0  0  0  0
   -0.7603    2.2338   -0.4957 H   0  0  0  0  0  0  0  0  0  0  0  0
   -2.3393    3.0255   -0.3920 H   0  0  0  0  0  0  0  0  0  0  0  0
   -5.0104   -0.5956   -0.6869 H   0  0  0  0  0  0  0  0  0  0  0  0
    4.9415    0.5373    1.2655 H   0  0  0  0  0  0  0  0  0  0  0  0
    3.4122    2.5440    0.1369 H   0  0  0  0  0  0  0  0  0  0  0  0
  1  2  1  0  0  0  0
  1  5  1  0  0  0  0
  2  7  1  0  0  0  0
  3  6  1  0  0  0  0
  3 12  1  0  0  0  0
  4  8  1  0  0  0  0
  4 14  1  0  0  0  0
  5  6  2  0  0  0  0
  5  9  1  0  0  0  0
  6 11  1  0  0  0  0
  7  8  1  0  0  0  0
  7 15  1  0  0  0  0
  7 16  1  0  0  0  0
  8 10  2  0  0  0  0
  9 12  2  0  0  0  0
  9 17  1  0  0  0  0
 10 13  1  0  0  0  0
 10 18  1  0  0  0  0
 11 19  1  0  0  0  0
 11 20  1  0  0  0  0
 11 21  1  0  0  0  0
 12 22  1  0  0  0  0
 13 14  2  0  0  0  0
 13 23  1  0  0  0  0
 14 24  1  0  0  0  0
M  END
> <PUBCHEM_COMPOUND_CID>
526616

> <PUBCHEM_CONFORMER_RMSD>
0.6

> <PUBCHEM_CONFORMER_DIVERSEORDER>
1
183
72
22
68
109
182
141
125
163
64
156
128
65
2
180
54
74
149
50
14
179
119
155
160
177
192
13
92
136
89
37
121
168
110
174
66
164
195
199
87
99
70
28
51
139
85
105
23
117
135
69
45
40
83
91
118
3
133
154
94
35
75
47
36
173
93
175
33
111
138
78
44
52
144
25
106
98
49
122
97
48
71
27
193
77
140
162
26
194
29
167
101
67
181
159
15
176
17
59
24
190
145
39
115
32
10
166
108
187
88
137
53
19
124
100
9
90
197
178
134
113
96
73
4
120
86
11
102
114
161
143
150
104
165
42
169
103
62
131
198
158
8
84
170
38
196
116
7
189
112
61
5
79
146
12
63
123
148
191
184
16
41
81
126
171
31
18
76
58
107
56
142
46
95
147
127
57
60
55
82
130
21
172
132
34
152
20
30
43
129
186
153
157
185
151
80
188
6

> <PUBCHEM_MMFF94_PARTIAL_CHARGES>
19
1 -0.05
10 -0.15
11 0.18
12 -0.01
13 -0.15
14 -0.01
17 0.15
18 0.15
2 -0.23
22 0.15
23 0.15
24 0.15
3 -0.28
4 -0.28
5 0.05
6 -0.04
7 0.41
8 -0.04
9 -0.15

> <PUBCHEM_EFFECTIVE_ROTOR_COUNT>
4

> <PUBCHEM_PHARMACOPHORE_FEATURES>
4
1 3 acceptor
1 4 acceptor
5 3 5 6 9 12 rings
5 4 8 10 13 14 rings

> <PUBCHEM_HEAVY_ATOM_COUNT>
14

> <PUBCHEM_ATOM_DEF_STEREO_COUNT>
0

> <PUBCHEM_ATOM_UDEF_STEREO_COUNT>
0

> <PUBCHEM_BOND_DEF_STEREO_COUNT>
0

> <PUBCHEM_BOND_UDEF_STEREO_COUNT>
0

> <PUBCHEM_ISOTOPIC_ATOM_COUNT>
0

> <PUBCHEM_COMPONENT_COUNT>
1

> <PUBCHEM_CACTVS_TAUTO_COUNT>
1

> <PUBCHEM_CONFORMER_ID>
0008091800000001

> <PUBCHEM_MMFF94_ENERGY>
-0.6032

> <PUBCHEM_FEATURE_SELFOVERLAP>
20.297

> <PUBCHEM_SHAPE_FINGERPRINT>
10871710 139 16754658110576882188
11132069 177 18334856117073630925
11615756 56 18410016532930371984
11715629 250 18265054643834265005
11759241 127 18272367598501905493
12162725 195 18335423460773158864
15375462 189 11240001144007417854
15775835 57 18059856194472180262
17492 89 18408602539403002491
17802600 8 18411976962236582192
17846911 113 18409166627679869225
18186145 218 18130520651417053122
18511873 20 11602538728088803199
192875 21 18040433312877583613
19422 9 10735881685469740874
20201158 50 18412830170126862584
20671657 53 17341267969290153886
21524375 3 18273215322246943270
22485316 2 9295289430533918186
23402539 116 18338225054987099991
23557571 272 18340782510749424807
23559900 14 18341046298987636938
305870 269 18041559126822042946
328317 168 18341889735753147743
351380 180 18410005542251356512
4028521 119 18334289838736787749
548570 60 18410852174641847160
57812782 119 18409167709943153442
6333272 397 18410013268771226690
69090 78 18412259570889668434
7364860 26 18122062009496104555
7832392 63 17836655123438089753
83771 10 9943808884918926666

> <PUBCHEM_SHAPE_MULTIPOLES>
284.07
7.66
2.02
0.97
0.63
0.31
0.04
1.66
0.01
-0.24
-0.09
0.19
-0.2
0.3

> <PUBCHEM_SHAPE_SELFOVERLAP>
573.737

> <PUBCHEM_SHAPE_VOLUME>
170.7

> <PUBCHEM_COORDINATE_TYPE>
2
5
10

$$$$
