526618
  -OEChem-11232108533D

 16 16  0     0  0  0  0  0  0999 V2000
    1.7914    1.0481   -0.0003 S   0  0  0  0  0  0  0  0  0  0  0  0
   -1.8401   -0.4792   -0.0002 O   0  0  0  0  0  0  0  0  0  0  0  0
   -0.9678    0.5627   -0.0004 C   0  0  0  0  0  0  0  0  0  0  0  0
    0.3298    0.1064   -0.0001 C   0  0  0  0  0  0  0  0  0  0  0  0
    0.2497   -1.3067    0.0003 C   0  0  0  0  0  0  0  0  0  0  0  0
   -1.5726    1.9041    0.0005 C   0  0  0  0  0  0  0  0  0  0  0  0
   -1.0912   -1.6131    0.0001 C   0  0  0  0  0  0  0  0  0  0  0  0
    3.1008   -0.2223    0.0002 C   0  0  0  0  0  0  0  0  0  0  0  0
    1.0476   -2.0352    0.0006 H   0  0  0  0  0  0  0  0  0  0  0  0
   -1.2655    2.4637    0.8895 H   0  0  0  0  0  0  0  0  0  0  0  0
   -1.2616    2.4668   -0.8851 H   0  0  0  0  0  0  0  0  0  0  0  0
   -2.6661    1.8520   -0.0020 H   0  0  0  0  0  0  0  0  0  0  0  0
   -1.6463   -2.5397    0.0002 H   0  0  0  0  0  0  0  0  0  0  0  0
    3.0341   -0.8450   -0.8959 H   0  0  0  0  0  0  0  0  0  0  0  0
    3.0340   -0.8444    0.8967 H   0  0  0  0  0  0  0  0  0  0  0  0
    4.0733    0.2774    0.0001 H   0  0  0  0  0  0  0  0  0  0  0  0
  1  4  1  0  0  0  0
  1  8  1  0  0  0  0
  2  3  1  0  0  0  0
  2  7  1  0  0  0  0
  3  4  2  0  0  0  0
  3  6  1  0  0  0  0
  4  5  1  0  0  0  0
  5  7  2  0  0  0  0
  5  9  1  0  0  0  0
  6 10  1  0  0  0  0
  6 11  1  0  0  0  0
  6 12  1  0  0  0  0
  7 13  1  0  0  0  0
  8 14  1  0  0  0  0
  8 15  1  0  0  0  0
  8 16  1  0  0  0  0
M  END
> <PUBCHEM_COMPOUND_CID>
526618

> <PUBCHEM_CONFORMER_RMSD>
0.4

> <PUBCHEM_CONFORMER_DIVERSEORDER>
5
1
4
6
2
3

> <PUBCHEM_MMFF94_PARTIAL_CHARGES>
10
1 -0.28
13 0.15
2 -0.28
3 -0.04
4 0.05
5 -0.15
6 0.18
7 -0.01
8 0.23
9 0.15

> <PUBCHEM_EFFECTIVE_ROTOR_COUNT>
1

> <PUBCHEM_PHARMACOPHORE_FEATURES>
3
1 2 acceptor
1 8 hydrophobe
5 2 3 4 5 7 rings

> <PUBCHEM_HEAVY_ATOM_COUNT>
8

> <PUBCHEM_ATOM_DEF_STEREO_COUNT>
0

> <PUBCHEM_ATOM_UDEF_STEREO_COUNT>
0

> <PUBCHEM_BOND_DEF_STEREO_COUNT>
0

> <PUBCHEM_BOND_UDEF_STEREO_COUNT>
0

> <PUBCHEM_ISOTOPIC_ATOM_COUNT>
0

> <PUBCHEM_COMPONENT_COUNT>
1

> <PUBCHEM_CACTVS_TAUTO_COUNT>
1

> <PUBCHEM_CONFORMER_ID>
0008091A00000005

> <PUBCHEM_MMFF94_ENERGY>
4.7303

> <PUBCHEM_FEATURE_SELFOVERLAP>
15.223

> <PUBCHEM_SHAPE_FINGERPRINT>
16714656 1 18338800129543280102
18185500 45 17689156029524434300
21040471 1 18338517413395049312
23552423 10 18116150163496462726
29004967 10 17759806239994013410
369184 2 15195291936488559782
5084963 1 18272933838426694264

> <PUBCHEM_SHAPE_MULTIPOLES>
162.62
3.21
1.85
0.62
2.59
0.16
0
0.38
0
-0.89
0
0.04
0.02
0

> <PUBCHEM_SHAPE_SELFOVERLAP>
315.132

> <PUBCHEM_SHAPE_VOLUME>
102

> <PUBCHEM_COORDINATE_TYPE>
2
5
10

$$$$
