526993
  -OEChem-11232108543D

 44 44  0     1  0  0  0  0  0999 V2000
    0.0199   -0.9905    0.1467 O   0  0  0  0  0  0  0  0  0  0  0  0
    1.3103   -2.9853    0.2306 O   0  0  0  0  0  0  0  0  0  0  0  0
   -1.1501   -1.6887   -0.2912 C   0  0  2  0  0  0  0  0  0  0  0  0
   -2.3693   -0.9506    0.2410 C   0  0  0  0  0  0  0  0  0  0  0  0
   -1.1019   -3.1309    0.2175 C   0  0  0  0  0  0  0  0  0  0  0  0
    1.2083   -1.6567   -0.2881 C   0  0  2  0  0  0  0  0  0  0  0  0
    2.3986   -0.8647    0.2253 C   0  0  0  0  0  0  0  0  0  0  0  0
   -2.4374    0.4778   -0.2978 C   0  0  0  0  0  0  0  0  0  0  0  0
    0.2096   -3.7857   -0.1983 C   0  0  0  0  0  0  0  0  0  0  0  0
    2.3844    0.5721   -0.2975 C   0  0  0  0  0  0  0  0  0  0  0  0
   -3.6822    1.2052    0.2129 C   0  0  0  0  0  0  0  0  0  0  0  0
    3.5656    1.3757    0.2490 C   0  0  0  0  0  0  0  0  0  0  0  0
   -3.7339    2.6449   -0.2982 C   0  0  0  0  0  0  0  0  0  0  0  0
    3.5697    2.8020   -0.3005 C   0  0  0  0  0  0  0  0  0  0  0  0
   -4.9526    3.3815    0.2344 C   0  0  0  0  0  0  0  0  0  0  0  0
    4.7611    3.5938    0.2143 C   0  0  0  0  0  0  0  0  0  0  0  0
   -1.1706   -1.6824   -1.3890 H   0  0  0  0  0  0  0  0  0  0  0  0
   -3.2814   -1.4931   -0.0356 H   0  0  0  0  0  0  0  0  0  0  0  0
   -2.3297   -0.9092    1.3369 H   0  0  0  0  0  0  0  0  0  0  0  0
   -1.1438   -3.1224    1.3143 H   0  0  0  0  0  0  0  0  0  0  0  0
   -1.9555   -3.7090   -0.1511 H   0  0  0  0  0  0  0  0  0  0  0  0
    1.2358   -1.6882   -1.3858 H   0  0  0  0  0  0  0  0  0  0  0  0
    2.3802   -0.8497    1.3229 H   0  0  0  0  0  0  0  0  0  0  0  0
    3.3308   -1.3672   -0.0606 H   0  0  0  0  0  0  0  0  0  0  0  0
   -2.4501    0.4587   -1.3945 H   0  0  0  0  0  0  0  0  0  0  0  0
   -1.5443    1.0376    0.0049 H   0  0  0  0  0  0  0  0  0  0  0  0
    0.2608   -3.9204   -1.2850 H   0  0  0  0  0  0  0  0  0  0  0  0
    0.3059   -4.7720    0.2658 H   0  0  0  0  0  0  0  0  0  0  0  0
    1.4525    1.0740   -0.0113 H   0  0  0  0  0  0  0  0  0  0  0  0
    2.4219    0.5617   -1.3937 H   0  0  0  0  0  0  0  0  0  0  0  0
   -3.6817    1.2062    1.3099 H   0  0  0  0  0  0  0  0  0  0  0  0
   -4.5822    0.6674   -0.1093 H   0  0  0  0  0  0  0  0  0  0  0  0
    4.5041    0.8764   -0.0211 H   0  0  0  0  0  0  0  0  0  0  0  0
    3.5178    1.4030    1.3444 H   0  0  0  0  0  0  0  0  0  0  0  0
   -3.7593    2.6501   -1.3940 H   0  0  0  0  0  0  0  0  0  0  0  0
   -2.8288    3.1822    0.0081 H   0  0  0  0  0  0  0  0  0  0  0  0
    2.6443    3.3144   -0.0129 H   0  0  0  0  0  0  0  0  0  0  0  0
    3.6011    2.7794   -1.3960 H   0  0  0  0  0  0  0  0  0  0  0  0
   -5.8777    2.8874   -0.0794 H   0  0  0  0  0  0  0  0  0  0  0  0
   -4.9704    4.4082   -0.1444 H   0  0  0  0  0  0  0  0  0  0  0  0
   -4.9390    3.4233    1.3283 H   0  0  0  0  0  0  0  0  0  0  0  0
    5.7035    3.1249   -0.0864 H   0  0  0  0  0  0  0  0  0  0  0  0
    4.7436    4.6107   -0.1899 H   0  0  0  0  0  0  0  0  0  0  0  0
    4.7442    3.6620    1.3066 H   0  0  0  0  0  0  0  0  0  0  0  0
  1  3  1  0  0  0  0
  1  6  1  0  0  0  0
  2  6  1  0  0  0  0
  2  9  1  0  0  0  0
  3  4  1  0  0  0  0
  3  5  1  0  0  0  0
  3 17  1  0  0  0  0
  4  8  1  0  0  0  0
  4 18  1  0  0  0  0
  4 19  1  0  0  0  0
  5  9  1  0  0  0  0
  5 20  1  0  0  0  0
  5 21  1  0  0  0  0
  6  7  1  0  0  0  0
  6 22  1  0  0  0  0
  7 10  1  0  0  0  0
  7 23  1  0  0  0  0
  7 24  1  0  0  0  0
  8 11  1  0  0  0  0
  8 25  1  0  0  0  0
  8 26  1  0  0  0  0
  9 27  1  0  0  0  0
  9 28  1  0  0  0  0
 10 12  1  0  0  0  0
 10 29  1  0  0  0  0
 10 30  1  0  0  0  0
 11 13  1  0  0  0  0
 11 31  1  0  0  0  0
 11 32  1  0  0  0  0
 12 14  1  0  0  0  0
 12 33  1  0  0  0  0
 12 34  1  0  0  0  0
 13 15  1  0  0  0  0
 13 35  1  0  0  0  0
 13 36  1  0  0  0  0
 14 16  1  0  0  0  0
 14 37  1  0  0  0  0
 14 38  1  0  0  0  0
 15 39  1  0  0  0  0
 15 40  1  0  0  0  0
 15 41  1  0  0  0  0
 16 42  1  0  0  0  0
 16 43  1  0  0  0  0
 16 44  1  0  0  0  0
M  END
> <PUBCHEM_COMPOUND_CID>
526993

> <PUBCHEM_CONFORMER_RMSD>
0.8

> <PUBCHEM_CONFORMER_DIVERSEORDER>
1
304
198
200
288
99
318
95
43
330
316
188
19
251
315
326
2
322
146
174
252
280
287
57
133
214
102
296
144
249
278
311
18
94
307
277
309
147
226
317
83
290
125
63
232
283
203
327
16
233
259
103
204
274
227
264
86
194
71
168
164
145
265
187
130
321
131
207
20
281
238
82
191
306
140
295
45
256
303
313
273
98
110
293
65
29
27
258
219
89
61
211
120
62
329
162
282
155
167
105
199
231
165
209
320
111
319
158
241
239
190
114
79
80
171
185
106
149
159
262
132
6
217
237
300
302
97
257
270
41
202
276
225
107
291
325
85
47
34
224
104
12
108
247
275
15
245
134
286
116
260
177
136
101
127
77
208
141
135
216
121
156
5
255
73
46
81
310
160
267
72
243
324
92
37
218
49
74
279
297
90
100
38
151
268
113
153
4
166
23
128
192
50
236
222
292
24
271
59
75
169
64
284
96
76
261
126
314
11
269
197
176
36
139
22
137
312
263
117
138
112
213
254
33
84
70
285
129
242
26
210
175
17
246
10
91
193
184
68
161
289
25
42
308
9
201
115
244
3
173
220
69
93
78
235
328
298
215
44
170
14
195
32
305
40
294
299
88
21
221
248
31
109
179
189
163
28
30
8
148
301
178
228
51
60
35
122
206
7
240
66
183
39
323
54
157
253
250
196
119
154
13
180
150
234
118
182
55
181
123
230
124
87
266
58
272
229
142
67
186
172
143
212
48
53
223
205
152
52
56

> <PUBCHEM_MMFF94_PARTIAL_CHARGES>
5
1 -0.56
2 -0.56
3 0.28
6 0.56
9 0.28

> <PUBCHEM_EFFECTIVE_ROTOR_COUNT>
9.2

> <PUBCHEM_PHARMACOPHORE_FEATURES>
7
1 1 acceptor
1 15 hydrophobe
1 16 hydrophobe
1 2 acceptor
4 4 8 11 13 hydrophobe
4 7 10 12 14 hydrophobe
6 1 2 3 5 6 9 rings

> <PUBCHEM_HEAVY_ATOM_COUNT>
16

> <PUBCHEM_ATOM_DEF_STEREO_COUNT>
0

> <PUBCHEM_ATOM_UDEF_STEREO_COUNT>
0

> <PUBCHEM_BOND_DEF_STEREO_COUNT>
0

> <PUBCHEM_BOND_UDEF_STEREO_COUNT>
0

> <PUBCHEM_ISOTOPIC_ATOM_COUNT>
0

> <PUBCHEM_COMPONENT_COUNT>
1

> <PUBCHEM_CACTVS_TAUTO_COUNT>
1

> <PUBCHEM_CONFORMER_ID>
00080A9100000001

> <PUBCHEM_MMFF94_ENERGY>
9.3669

> <PUBCHEM_FEATURE_SELFOVERLAP>
35.558

> <PUBCHEM_SHAPE_FINGERPRINT>
10937287 8 18411136948095763133
12107183 9 18335403683356395672
12173636 292 18266458900392512486
12293681 160 17687436359058930695
13590594 115 17042618513494220123
138480 1 17762055441268322189
13965767 371 18041272188889433972
14123255 52 18410575093258587109
14251764 75 18341905073446320417
14508225 48 17046255152361686126
15422964 175 9150879538760715751
155225 5 18123190375105195288
15961568 22 16539886119362552336
17134986 127 18339646646286307998
1741750 31 18339078314912749682
1768 85 18194695778525292849
17834072 32 18410573993921253480
18785283 64 18192432970187363291
20510252 161 18052827132647872418
20621476 13 18120365459033863637
21041028 32 16967163419974069903
22182937 141 18197507430860914272
23590187 32 18338516451428071440
474 4 18267299820908697569
59124914 9 18338238167928553472
5939293 188 17977662009322306359
7808743 9 18194682794390562552
8199 26 18410855503210093348
84936 182 18271800164634509217
9981440 41 18409442622162311803

> <PUBCHEM_SHAPE_MULTIPOLES>
317.53
8.93
5.88
0.67
0.16
0.16
0.01
-15.92
-0.5
-0.11
-0.11
-0.01
-0.04
0.02

> <PUBCHEM_SHAPE_SELFOVERLAP>
597.376

> <PUBCHEM_SHAPE_VOLUME>
196.6

> <PUBCHEM_COORDINATE_TYPE>
2
5
10

$$$$
