5270709
  -OEChem-11232109433D

 33 36  0     0  0  0  0  0  0999 V2000
    4.5242   -2.5918   -0.7620 Cl  0  0  0  0  0  0  0  0  0  0  0  0
    5.9416   -0.1147   -2.2888 Cl  0  0  0  0  0  0  0  0  0  0  0  0
   -4.7745   -1.0140   -0.6983 O   0  0  0  0  0  0  0  0  0  0  0  0
    0.3741    0.9052    1.2415 N   0  0  0  0  0  0  0  0  0  0  0  0
   -1.4443    1.7419    0.2602 N   0  0  0  0  0  0  0  0  0  0  0  0
   -0.2781   -1.4288    1.4072 N   0  0  0  0  0  0  0  0  0  0  0  0
   -2.5048   -1.7949    0.4777 N   0  0  0  0  0  0  0  0  0  0  0  0
    1.6867    0.8650    1.8393 C   0  0  0  0  0  0  0  0  0  0  0  0
   -0.4784   -0.1473    1.0651 C   0  0  0  0  0  0  0  0  0  0  0  0
   -1.5994    0.3923    0.4548 C   0  0  0  0  0  0  0  0  0  0  0  0
    2.7517    0.6036    0.8088 C   0  0  0  0  0  0  0  0  0  0  0  0
   -0.2507    2.0175    0.7431 C   0  0  0  0  0  0  0  0  0  0  0  0
   -2.6384   -0.4846    0.1598 C   0  0  0  0  0  0  0  0  0  0  0  0
   -3.8450   -0.0462   -0.4690 C   0  0  0  0  0  0  0  0  0  0  0  0
    3.1162   -0.7042    0.5188 C   0  0  0  0  0  0  0  0  0  0  0  0
    3.3540    1.6734    0.1607 C   0  0  0  0  0  0  0  0  0  0  0  0
   -1.3500   -2.1799    1.0728 C   0  0  0  0  0  0  0  0  0  0  0  0
    4.1021   -0.9468   -0.4379 C   0  0  0  0  0  0  0  0  0  0  0  0
    4.3397    1.4308   -0.7957 C   0  0  0  0  0  0  0  0  0  0  0  0
   -4.3083    1.1737   -0.9168 C   0  0  0  0  0  0  0  0  0  0  0  0
    4.7138    0.1208   -1.0951 C   0  0  0  0  0  0  0  0  0  0  0  0
   -5.5972    0.9373   -1.4516 C   0  0  0  0  0  0  0  0  0  0  0  0
   -5.8348   -0.4084   -1.2948 C   0  0  0  0  0  0  0  0  0  0  0  0
    1.6913    0.0943    2.6192 H   0  0  0  0  0  0  0  0  0  0  0  0
    1.8593    1.8209    2.3488 H   0  0  0  0  0  0  0  0  0  0  0  0
    0.2087    2.9965    0.7584 H   0  0  0  0  0  0  0  0  0  0  0  0
    2.6392   -1.5328    1.0364 H   0  0  0  0  0  0  0  0  0  0  0  0
    3.0700    2.6975    0.3858 H   0  0  0  0  0  0  0  0  0  0  0  0
   -1.2773   -3.2352    1.3128 H   0  0  0  0  0  0  0  0  0  0  0  0
    4.8059    2.2747   -1.2982 H   0  0  0  0  0  0  0  0  0  0  0  0
   -3.7960    2.1239   -0.8723 H   0  0  0  0  0  0  0  0  0  0  0  0
   -6.2690    1.6575   -1.8956 H   0  0  0  0  0  0  0  0  0  0  0  0
   -6.6640   -1.0550   -1.5419 H   0  0  0  0  0  0  0  0  0  0  0  0
  1 18  1  0  0  0  0
  2 21  1  0  0  0  0
  3 14  1  0  0  0  0
  3 23  1  0  0  0  0
  4  8  1  0  0  0  0
  4  9  1  0  0  0  0
  4 12  1  0  0  0  0
  5 10  1  0  0  0  0
  5 12  2  0  0  0  0
  6  9  2  0  0  0  0
  6 17  1  0  0  0  0
  7 13  1  0  0  0  0
  7 17  2  0  0  0  0
  8 11  1  0  0  0  0
  8 24  1  0  0  0  0
  8 25  1  0  0  0  0
  9 10  1  0  0  0  0
 10 13  2  0  0  0  0
 11 15  2  0  0  0  0
 11 16  1  0  0  0  0
 12 26  1  0  0  0  0
 13 14  1  0  0  0  0
 14 20  2  0  0  0  0
 15 18  1  0  0  0  0
 15 27  1  0  0  0  0
 16 19  2  0  0  0  0
 16 28  1  0  0  0  0
 17 29  1  0  0  0  0
 18 21  2  0  0  0  0
 19 21  1  0  0  0  0
 19 30  1  0  0  0  0
 20 22  1  0  0  0  0
 20 31  1  0  0  0  0
 22 23  2  0  0  0  0
 22 32  1  0  0  0  0
 23 33  1  0  0  0  0
M  END
> <PUBCHEM_COMPOUND_CID>
5270709

> <PUBCHEM_CONFORMER_RMSD>
0.6

> <PUBCHEM_CONFORMER_DIVERSEORDER>
1
27
37
46
40
32
26
63
56
31
58
45
38
39
28
64
36
25
35
43
66
62
42
67
60
2
15
16
20
19
59
61
44
29
69
13
14
18
57
50
23
55
48
24
10
9
17
65
12
11
33
34
68
72
30
41
22
5
54
21
47
6
52
49
71
7
8
70
51
53
4
3

> <PUBCHEM_MMFF94_PARTIAL_CHARGES>
31
1 -0.18
10 0.23
11 -0.14
12 0.04
13 0.36
14 0.09
15 -0.15
16 -0.15
17 0.47
18 0.18
19 -0.15
2 -0.18
20 -0.15
21 0.18
22 -0.15
23 -0.01
26 0.15
27 0.15
28 0.15
29 0.15
3 -0.28
30 0.15
31 0.15
32 0.15
33 0.15
4 0.05
5 -0.57
6 -0.57
7 -0.62
8 0.4
9 0.11

> <PUBCHEM_EFFECTIVE_ROTOR_COUNT>
3

> <PUBCHEM_PHARMACOPHORE_FEATURES>
8
1 3 acceptor
3 4 5 12 cation
3 4 6 9 cation
3 6 7 17 cation
5 3 14 20 22 23 rings
5 4 5 9 10 12 rings
6 11 15 16 18 19 21 rings
6 6 7 9 10 13 17 rings

> <PUBCHEM_HEAVY_ATOM_COUNT>
23

> <PUBCHEM_ATOM_DEF_STEREO_COUNT>
0

> <PUBCHEM_ATOM_UDEF_STEREO_COUNT>
0

> <PUBCHEM_BOND_DEF_STEREO_COUNT>
0

> <PUBCHEM_BOND_UDEF_STEREO_COUNT>
0

> <PUBCHEM_ISOTOPIC_ATOM_COUNT>
0

> <PUBCHEM_COMPONENT_COUNT>
1

> <PUBCHEM_CACTVS_TAUTO_COUNT>
1

> <PUBCHEM_CONFORMER_ID>
00506CB500000001

> <PUBCHEM_MMFF94_ENERGY>
41.156

> <PUBCHEM_FEATURE_SELFOVERLAP>
41.203

> <PUBCHEM_SHAPE_FINGERPRINT>
10498660 4 18113903796811184288
10554248 39 16881001510625355351
10670039 82 17677043543066202565
10693767 8 18058709361322713487
107951 10 17894353301923958627
11069576 57 18129389207346112590
11796584 16 15769767005505289189
12596602 18 10519980474190727535
12670543 26 18340199709615215653
12788726 201 18410854313441070160
12839892 36 10880000172502921629
12892183 10 11023563350006876400
12895836 83 17386008407177653518
12895837 130 16299815215932181670
12925494 130 8789240303467754599
12954195 1 18059295336511340793
13533116 47 15195279867424736274
14178342 30 10807120178137426035
14251764 75 11964550749934103254
14341114 176 9511467706527935220
14528608 73 17822282492497675765
14848178 5 15482664689112018285
14931854 50 18339093592623521310
15183329 4 18412544284435185749
15188451 53 13758355548814090565
15342168 16 13262402154540359066
15475509 8 18342743988238983025
15575132 122 16878213170342880341
16752209 62 18340199691913146560
17349148 13 15051738641846453029
1813 80 14692851410557392968
18222031 100 16558750113788802716
19784866 240 16343991303333004780
1979834 28 7997693150783360065
200 152 16988848280248777616
20567600 234 12035735297463298551
20567600 247 17131536332819168143
20645477 70 17561080349787407336
20871999 31 18410015411859908072
21304303 282 13612304018284056187
21307412 95 18059866077234601287
21521239 73 17916286373397480999
21637258 2 15626221299405723252
22079108 93 13551192186738073713
221357 26 18342164584334143173
2215653 11 18202274823580230677
22182313 1 18121778593341181315
22849339 104 18189058753712504571
23366157 5 17317304139596433251
23379529 103 17554877047250362663
23559900 14 18339924922013718608
270888 7 15068632634049692868
2838139 119 15791724187591173309
2871803 45 18343868822966886848
3004659 81 18334851685163383722
3472631 163 16515691082382256878
34797466 226 17894915161229213581
3759504 43 17240479239117888227
3886686 26 12027626329898468468
4058900 60 17678449767821302961
4280585 95 17548158640790057662
46194498 28 17973732672502141320
463206 1 17703783730320643190
465052 167 16486975145436280701
474 4 15140679198036863844
4990 188 18342443864323700169
5104073 3 9799430909152969030
56616090 284 18343584035974500057
59682541 52 18059277795953893087
7970288 3 16200163053980776876
960060 61 18272930548539878276

> <PUBCHEM_SHAPE_MULTIPOLES>
451.28
13.5
2.15
1.69
2.94
0.62
-0.28
1.44
-10.94
-1.03
0.3
-0.74
-0.03
0.87

> <PUBCHEM_SHAPE_SELFOVERLAP>
993.989

> <PUBCHEM_SHAPE_VOLUME>
246

> <PUBCHEM_COORDINATE_TYPE>
2
5
10

$$$$
