5271566
  -OEChem-11232108573D

 24 23  0     0  0  0  0  0  0999 V2000
    2.3087   -0.0570    0.3763 O   0  0  0  0  0  0  0  0  0  0  0  0
   -1.9277    0.3422    0.5033 O   0  0  0  0  0  0  0  0  0  0  0  0
    0.6870   -0.3409   -1.2446 O   0  0  0  0  0  0  0  0  0  0  0  0
   -1.9567   -1.2843   -1.1372 O   0  0  0  0  0  0  0  0  0  0  0  0
    3.0316    0.8283   -0.4854 C   0  0  0  0  0  0  0  0  0  0  0  0
   -2.7461    1.1912   -0.3082 C   0  0  0  0  0  0  0  0  0  0  0  0
    4.2795    1.3019    0.2290 C   0  0  0  0  0  0  0  0  0  0  0  0
   -3.0037    2.4846    0.4350 C   0  0  0  0  0  0  0  0  0  0  0  0
    0.5575   -1.4476    0.8843 C   0  0  0  0  0  0  0  0  0  0  0  0
   -0.7719   -1.5917    0.9306 C   0  0  0  0  0  0  0  0  0  0  0  0
    1.1563   -0.5632   -0.1397 C   0  0  0  0  0  0  0  0  0  0  0  0
   -1.6146   -0.8635   -0.0435 C   0  0  0  0  0  0  0  0  0  0  0  0
    3.3090    0.2984   -1.4036 H   0  0  0  0  0  0  0  0  0  0  0  0
    2.4006    1.6877   -0.7380 H   0  0  0  0  0  0  0  0  0  0  0  0
   -2.2297    1.4024   -1.2512 H   0  0  0  0  0  0  0  0  0  0  0  0
   -3.6970    0.6891   -0.5186 H   0  0  0  0  0  0  0  0  0  0  0  0
    4.8574    1.9822   -0.4028 H   0  0  0  0  0  0  0  0  0  0  0  0
    4.0187    1.8182    1.1587 H   0  0  0  0  0  0  0  0  0  0  0  0
    4.9121    0.4516    0.5042 H   0  0  0  0  0  0  0  0  0  0  0  0
   -3.6276    3.1590   -0.1582 H   0  0  0  0  0  0  0  0  0  0  0  0
   -3.5034    2.2879    1.3892 H   0  0  0  0  0  0  0  0  0  0  0  0
   -2.0602    2.9891    0.6684 H   0  0  0  0  0  0  0  0  0  0  0  0
    1.2019   -1.9303    1.6097 H   0  0  0  0  0  0  0  0  0  0  0  0
   -1.2614   -2.2077    1.6743 H   0  0  0  0  0  0  0  0  0  0  0  0
  1  5  1  0  0  0  0
  1 11  1  0  0  0  0
  2  6  1  0  0  0  0
  2 12  1  0  0  0  0
  3 11  2  0  0  0  0
  4 12  2  0  0  0  0
  5  7  1  0  0  0  0
  5 13  1  0  0  0  0
  5 14  1  0  0  0  0
  6  8  1  0  0  0  0
  6 15  1  0  0  0  0
  6 16  1  0  0  0  0
  7 17  1  0  0  0  0
  7 18  1  0  0  0  0
  7 19  1  0  0  0  0
  8 20  1  0  0  0  0
  8 21  1  0  0  0  0
  8 22  1  0  0  0  0
  9 10  2  0  0  0  0
  9 11  1  0  0  0  0
  9 23  1  0  0  0  0
 10 12  1  0  0  0  0
 10 24  1  0  0  0  0
M  END
> <PUBCHEM_COMPOUND_CID>
5271566

> <PUBCHEM_CONFORMER_RMSD>
0.6

> <PUBCHEM_CONFORMER_DIVERSEORDER>
2
11
84
44
75
52
76
103
85
34
79
116
94
115
7
45
22
96
35
15
73
92
9
40
39
114
80
13
109
66
26
72
65
95
105
107
112
5
37
81
118
51
117
100
41
31
32
54
89
87
58
106
101
23
123
14
108
42
113
53
60
38
111
63
36
121
83
27
122
110
99
120
126
64
4
29
46
88
97
102
71
91
69
59
25
78
33
48
68
24
6
104
90
43
93
77
1
61
3
49
18
20
12
56
127
47
30
74
28
70
8
55
50
16
82
119
125
21
124
86
57
10
62
98
19
17
67

> <PUBCHEM_MMFF94_PARTIAL_CHARGES>
12
1 -0.43
10 -0.14
11 0.71
12 0.71
2 -0.43
23 0.15
24 0.15
3 -0.57
4 -0.57
5 0.28
6 0.28
9 -0.14

> <PUBCHEM_EFFECTIVE_ROTOR_COUNT>
6

> <PUBCHEM_PHARMACOPHORE_FEATURES>
2
1 3 acceptor
1 4 acceptor

> <PUBCHEM_HEAVY_ATOM_COUNT>
12

> <PUBCHEM_ATOM_DEF_STEREO_COUNT>
0

> <PUBCHEM_ATOM_UDEF_STEREO_COUNT>
0

> <PUBCHEM_BOND_DEF_STEREO_COUNT>
1

> <PUBCHEM_BOND_UDEF_STEREO_COUNT>
0

> <PUBCHEM_ISOTOPIC_ATOM_COUNT>
0

> <PUBCHEM_COMPONENT_COUNT>
1

> <PUBCHEM_CACTVS_TAUTO_COUNT>
1

> <PUBCHEM_CONFORMER_ID>
0050700E00000002

> <PUBCHEM_MMFF94_ENERGY>
23.7234

> <PUBCHEM_FEATURE_SELFOVERLAP>
10.152

> <PUBCHEM_SHAPE_FINGERPRINT>
11769659 78 8934989369768630225
12006461 19 8286191751827183592
12162725 195 18263644129393058284
122479 349 18409455756082949841
12491281 212 18187649128286394808
12932764 1 17846499287581358730
13839132 238 18410864243468274566
14123255 52 18336264527055248281
14123260 362 18187940511758308964
14128692 85 10735873984746340538
15775835 57 18337392630390882201
17357990 137 17767683858850331897
18342897 96 18412825780812678381
19837323 101 18409457998282725235
20645477 56 18131078168283999592
20653085 51 18269847436167763259
20671657 1 18121219779277988298
21524375 3 18335699399547671995
2306618 200 17459454718745350743
23402539 116 18266733778315540415
23500284 214 18409459067492159785
305870 269 18187081711361523738
568465 68 13767926823361881872

> <PUBCHEM_SHAPE_MULTIPOLES>
223.48
5.97
2.15
1
4.47
0.72
-0.13
5.02
0.18
-1.48
0.46
-0.15
-0.25
-0.38

> <PUBCHEM_SHAPE_SELFOVERLAP>
427.974

> <PUBCHEM_SHAPE_VOLUME>
136.5

> <PUBCHEM_COORDINATE_TYPE>
2
5
10

$$$$
