527108
  -OEChem-11232109213D

 27 27  0     0  0  0  0  0  0999 V2000
    2.4278    1.6247    0.2335 O   0  0  0  0  0  0  0  0  0  0  0  0
   -0.9743   -0.4400   -0.2481 C   0  0  0  0  0  0  0  0  0  0  0  0
    1.9933   -0.7020   -0.2055 C   0  0  0  0  0  0  0  0  0  0  0  0
   -0.0841    0.4615   -1.1129 C   0  0  0  0  0  0  0  0  0  0  0  0
   -0.2329   -0.8749    1.0224 C   0  0  0  0  0  0  0  0  0  0  0  0
    1.2486   -0.2098   -1.4478 C   0  0  0  0  0  0  0  0  0  0  0  0
    1.0993   -1.5529    0.6985 C   0  0  0  0  0  0  0  0  0  0  0  0
   -2.2593    0.2523    0.0959 C   0  0  0  0  0  0  0  0  0  0  0  0
    2.5811    0.4518    0.5575 C   0  0  0  0  0  0  0  0  0  0  0  0
   -3.5156   -0.4006   -0.3994 C   0  0  0  0  0  0  0  0  0  0  0  0
   -2.2838    1.3899    0.8060 C   0  0  0  0  0  0  0  0  0  0  0  0
   -1.1984   -1.3451   -0.8299 H   0  0  0  0  0  0  0  0  0  0  0  0
    2.8485   -1.3087   -0.5284 H   0  0  0  0  0  0  0  0  0  0  0  0
    0.1024    1.4235   -0.6231 H   0  0  0  0  0  0  0  0  0  0  0  0
   -0.6015    0.6971   -2.0523 H   0  0  0  0  0  0  0  0  0  0  0  0
   -0.8549   -1.5716    1.5989 H   0  0  0  0  0  0  0  0  0  0  0  0
   -0.0357   -0.0186    1.6794 H   0  0  0  0  0  0  0  0  0  0  0  0
    1.0515   -1.0695   -2.1015 H   0  0  0  0  0  0  0  0  0  0  0  0
    1.8699    0.4825   -2.0288 H   0  0  0  0  0  0  0  0  0  0  0  0
    1.6174   -1.7916    1.6352 H   0  0  0  0  0  0  0  0  0  0  0  0
    0.8961   -2.5086    0.1984 H   0  0  0  0  0  0  0  0  0  0  0  0
    3.1897    0.1857    1.4388 H   0  0  0  0  0  0  0  0  0  0  0  0
   -3.5030   -0.4692   -1.4921 H   0  0  0  0  0  0  0  0  0  0  0  0
   -3.6071   -1.4107    0.0130 H   0  0  0  0  0  0  0  0  0  0  0  0
   -4.4120    0.1587   -0.1115 H   0  0  0  0  0  0  0  0  0  0  0  0
   -3.2226    1.8785    1.0467 H   0  0  0  0  0  0  0  0  0  0  0  0
   -1.3796    1.8670    1.1675 H   0  0  0  0  0  0  0  0  0  0  0  0
  1  9  2  0  0  0  0
  2  4  1  0  0  0  0
  2  5  1  0  0  0  0
  2  8  1  0  0  0  0
  2 12  1  0  0  0  0
  3  6  1  0  0  0  0
  3  7  1  0  0  0  0
  3  9  1  0  0  0  0
  3 13  1  0  0  0  0
  4  6  1  0  0  0  0
  4 14  1  0  0  0  0
  4 15  1  0  0  0  0
  5  7  1  0  0  0  0
  5 16  1  0  0  0  0
  5 17  1  0  0  0  0
  6 18  1  0  0  0  0
  6 19  1  0  0  0  0
  7 20  1  0  0  0  0
  7 21  1  0  0  0  0
  8 10  1  0  0  0  0
  8 11  2  0  0  0  0
  9 22  1  0  0  0  0
 10 23  1  0  0  0  0
 10 24  1  0  0  0  0
 10 25  1  0  0  0  0
 11 26  1  0  0  0  0
 11 27  1  0  0  0  0
M  END
> <PUBCHEM_COMPOUND_CID>
527108

> <PUBCHEM_CONFORMER_RMSD>
0.6

> <PUBCHEM_CONFORMER_DIVERSEORDER>
1
6
11
9
4
12
10
8
5
2
13
3
7

> <PUBCHEM_MMFF94_PARTIAL_CHARGES>
10
1 -0.57
10 0.14
11 -0.3
2 0.14
22 0.06
26 0.15
27 0.15
3 0.06
8 -0.28
9 0.45

> <PUBCHEM_EFFECTIVE_ROTOR_COUNT>
3.2

> <PUBCHEM_PHARMACOPHORE_FEATURES>
2
1 1 acceptor
6 2 3 4 5 6 7 rings

> <PUBCHEM_HEAVY_ATOM_COUNT>
11

> <PUBCHEM_ATOM_DEF_STEREO_COUNT>
0

> <PUBCHEM_ATOM_UDEF_STEREO_COUNT>
0

> <PUBCHEM_BOND_DEF_STEREO_COUNT>
0

> <PUBCHEM_BOND_UDEF_STEREO_COUNT>
0

> <PUBCHEM_ISOTOPIC_ATOM_COUNT>
0

> <PUBCHEM_COMPONENT_COUNT>
1

> <PUBCHEM_CACTVS_TAUTO_COUNT>
2

> <PUBCHEM_CONFORMER_ID>
00080B0400000001

> <PUBCHEM_MMFF94_ENERGY>
14.7785

> <PUBCHEM_FEATURE_SELFOVERLAP>
10.148

> <PUBCHEM_SHAPE_FINGERPRINT>
10219947 1 17167860859399496454
10857977 72 16732993006949983243
11031198 65 15195290785526982253
12162725 195 18273495662935290121
12423570 1 11364248028431754350
12897270 3 16128659647508948664
12932764 1 18264780874034210077
13839132 238 18343030990252482540
14390081 3 18413109446312419857
15310529 11 17346596357198402647
15775835 57 18265061249262175993
16945 1 17240774947035851495
170605 34 18272931660946892280
19973954 147 17774450369108265369
20201158 50 15791729668296574523
20653085 51 17845112704386247281
20711985 344 12174808085974302042
21040471 1 17822588182199567566
21293036 1 14476959034020766408
230 275 18261119577285536612
23235685 24 17458071464640887222
23419403 2 16318893060654236454
23552423 10 15768392490889178679
29004967 10 16588315933903874759
3248919 1 17274256137364526735
369184 2 18410291393831396653
5084963 1 17894917278210331247
8030462 33 18261684675007468599

> <PUBCHEM_SHAPE_MULTIPOLES>
220.51
4.46
1.38
1.18
2.13
0.13
0.22
0.78
-0.26
-0.4
-0.38
-0.15
0.02
-0.2

> <PUBCHEM_SHAPE_SELFOVERLAP>
435.059

> <PUBCHEM_SHAPE_VOLUME>
130.3

> <PUBCHEM_COORDINATE_TYPE>
2
5
10

$$$$
