527393
  -OEChem-11232109213D

 17 16  0     1  0  0  0  0  0999 V2000
   -1.3740   -1.4687    0.7371 S   0  0  0  0  0  0  0  0  0  0  0  0
    1.4355   -0.8585   -0.9200 O   0  0  0  0  0  0  0  0  0  0  0  0
   -1.2626    0.0218   -0.3192 C   0  0  2  0  0  0  0  0  0  0  0  0
   -0.0117    0.8369    0.0275 C   0  0  0  0  0  0  0  0  0  0  0  0
   -2.5257    0.8564   -0.1260 C   0  0  0  0  0  0  0  0  0  0  0  0
    1.2946    0.0706   -0.1263 C   0  0  0  0  0  0  0  0  0  0  0  0
    2.4439    0.5415    0.7268 C   0  0  0  0  0  0  0  0  0  0  0  0
   -1.2100   -0.3182   -1.3594 H   0  0  0  0  0  0  0  0  0  0  0  0
   -0.0779    1.1976    1.0619 H   0  0  0  0  0  0  0  0  0  0  0  0
    0.0551    1.7187   -0.6207 H   0  0  0  0  0  0  0  0  0  0  0  0
   -2.6334    1.2030    0.9082 H   0  0  0  0  0  0  0  0  0  0  0  0
   -3.4238    0.2891   -0.3946 H   0  0  0  0  0  0  0  0  0  0  0  0
   -2.4971    1.7431   -0.7691 H   0  0  0  0  0  0  0  0  0  0  0  0
    2.6649    1.5869    0.4978 H   0  0  0  0  0  0  0  0  0  0  0  0
    3.3311   -0.0622    0.5165 H   0  0  0  0  0  0  0  0  0  0  0  0
    2.1858    0.4316    1.7829 H   0  0  0  0  0  0  0  0  0  0  0  0
   -0.3265   -2.1176    0.2080 H   0  0  0  0  0  0  0  0  0  0  0  0
  1  3  1  0  0  0  0
  1 17  1  0  0  0  0
  2  6  2  0  0  0  0
  3  4  1  0  0  0  0
  3  5  1  0  0  0  0
  3  8  1  0  0  0  0
  4  6  1  0  0  0  0
  4  9  1  0  0  0  0
  4 10  1  0  0  0  0
  5 11  1  0  0  0  0
  5 12  1  0  0  0  0
  5 13  1  0  0  0  0
  6  7  1  0  0  0  0
  7 14  1  0  0  0  0
  7 15  1  0  0  0  0
  7 16  1  0  0  0  0
M  END
> <PUBCHEM_COMPOUND_CID>
527393

> <PUBCHEM_CONFORMER_RMSD>
0.4

> <PUBCHEM_CONFORMER_DIVERSEORDER>
7
16
2
12
15
14
8
1
3
4
11
5
13
10
6
9

> <PUBCHEM_MMFF94_PARTIAL_CHARGES>
7
1 -0.41
17 0.18
2 -0.57
3 0.23
4 0.06
6 0.45
7 0.06

> <PUBCHEM_EFFECTIVE_ROTOR_COUNT>
2

> <PUBCHEM_PHARMACOPHORE_FEATURES>
1
1 2 acceptor

> <PUBCHEM_HEAVY_ATOM_COUNT>
7

> <PUBCHEM_ATOM_DEF_STEREO_COUNT>
0

> <PUBCHEM_ATOM_UDEF_STEREO_COUNT>
1

> <PUBCHEM_BOND_DEF_STEREO_COUNT>
0

> <PUBCHEM_BOND_UDEF_STEREO_COUNT>
0

> <PUBCHEM_ISOTOPIC_ATOM_COUNT>
0

> <PUBCHEM_COMPONENT_COUNT>
1

> <PUBCHEM_CACTVS_TAUTO_COUNT>
3

> <PUBCHEM_CONFORMER_ID>
00080C2100000007

> <PUBCHEM_MMFF94_ENERGY>
8.5659

> <PUBCHEM_FEATURE_SELFOVERLAP>
5.074

> <PUBCHEM_SHAPE_FINGERPRINT>
12932741 1 18272943725399127214
14390081 3 17632569457274090617
16714656 1 17895199874463559109
21040471 1 18187367571557579775
24536 1 18410862087294471573
29004967 10 18130794485530581472
5460574 1 11241971456033596701

> <PUBCHEM_SHAPE_MULTIPOLES>
142.04
3.41
1.32
0.88
0.47
0.41
0.02
-0.52
-0.45
-0.75
-0.15
0.27
0.14
0.39

> <PUBCHEM_SHAPE_SELFOVERLAP>
245.673

> <PUBCHEM_SHAPE_VOLUME>
95.9

> <PUBCHEM_COORDINATE_TYPE>
2
5
10

$$$$
