5273468
  -OEChem-11232109453D

 43 43  0     0  0  0  0  0  0999 V2000
   -0.0301   -0.3361   -0.0141 O   0  0  0  0  0  0  0  0  0  0  0  0
   -1.1541   -2.3445   -0.2167 O   0  0  0  0  0  0  0  0  0  0  0  0
    4.8312    0.3973    0.1293 C   0  0  0  0  0  0  0  0  0  0  0  0
    6.2370   -0.2046    0.0479 C   0  0  0  0  0  0  0  0  0  0  0  0
    3.7156   -0.6393   -0.0228 C   0  0  0  0  0  0  0  0  0  0  0  0
    7.3522    0.8403    0.1260 C   0  0  0  0  0  0  0  0  0  0  0  0
    2.3376    0.0176    0.0427 C   0  0  0  0  0  0  0  0  0  0  0  0
    8.7288    0.1931   -0.0328 C   0  0  0  0  0  0  0  0  0  0  0  0
    1.2197   -1.0099   -0.0663 C   0  0  0  0  0  0  0  0  0  0  0  0
    9.8397    1.2303    0.0057 C   0  0  0  0  0  0  0  0  0  0  0  0
   -1.1378   -1.1294   -0.1006 C   0  0  0  0  0  0  0  0  0  0  0  0
   -2.3319   -0.2569   -0.0305 C   0  0  0  0  0  0  0  0  0  0  0  0
   -3.5543   -0.8037   -0.0962 C   0  0  0  0  0  0  0  0  0  0  0  0
   -4.8153   -0.0446   -0.0273 C   0  0  0  0  0  0  0  0  0  0  0  0
   -4.8218    1.3232   -0.3014 C   0  0  0  0  0  0  0  0  0  0  0  0
   -6.0026   -0.6935    0.3121 C   0  0  0  0  0  0  0  0  0  0  0  0
   -6.0154    2.0420   -0.2359 C   0  0  0  0  0  0  0  0  0  0  0  0
   -7.1961    0.0254    0.3775 C   0  0  0  0  0  0  0  0  0  0  0  0
   -7.2025    1.3932    0.1036 C   0  0  0  0  0  0  0  0  0  0  0  0
    4.7192    0.9154    1.0897 H   0  0  0  0  0  0  0  0  0  0  0  0
    4.7231    1.1574   -0.6546 H   0  0  0  0  0  0  0  0  0  0  0  0
    6.3302   -0.7592   -0.8943 H   0  0  0  0  0  0  0  0  0  0  0  0
    6.3639   -0.9338    0.8577 H   0  0  0  0  0  0  0  0  0  0  0  0
    3.8064   -1.3904    0.7710 H   0  0  0  0  0  0  0  0  0  0  0  0
    3.8288   -1.1635   -0.9794 H   0  0  0  0  0  0  0  0  0  0  0  0
    7.2062    1.5893   -0.6619 H   0  0  0  0  0  0  0  0  0  0  0  0
    7.2963    1.3662    1.0866 H   0  0  0  0  0  0  0  0  0  0  0  0
    2.2316    0.7581   -0.7600 H   0  0  0  0  0  0  0  0  0  0  0  0
    2.2260    0.5747    0.9813 H   0  0  0  0  0  0  0  0  0  0  0  0
    8.7788   -0.3493   -0.9841 H   0  0  0  0  0  0  0  0  0  0  0  0
    8.8900   -0.5389    0.7671 H   0  0  0  0  0  0  0  0  0  0  0  0
    1.2845   -1.7243    0.7629 H   0  0  0  0  0  0  0  0  0  0  0  0
    1.3013   -1.5535   -1.0150 H   0  0  0  0  0  0  0  0  0  0  0  0
    9.7256    1.9579   -0.8043 H   0  0  0  0  0  0  0  0  0  0  0  0
   10.8147    0.7460   -0.1078 H   0  0  0  0  0  0  0  0  0  0  0  0
    9.8379    1.7717    0.9571 H   0  0  0  0  0  0  0  0  0  0  0  0
   -2.1591    0.8057    0.0935 H   0  0  0  0  0  0  0  0  0  0  0  0
   -3.6671   -1.8810   -0.1949 H   0  0  0  0  0  0  0  0  0  0  0  0
   -3.9264    1.8660   -0.5893 H   0  0  0  0  0  0  0  0  0  0  0  0
   -6.0163   -1.7586    0.5301 H   0  0  0  0  0  0  0  0  0  0  0  0
   -6.0219    3.1061   -0.4537 H   0  0  0  0  0  0  0  0  0  0  0  0
   -8.1207   -0.4796    0.6417 H   0  0  0  0  0  0  0  0  0  0  0  0
   -8.1320    1.9526    0.1534 H   0  0  0  0  0  0  0  0  0  0  0  0
  1  9  1  0  0  0  0
  1 11  1  0  0  0  0
  2 11  2  0  0  0  0
  3  4  1  0  0  0  0
  3  5  1  0  0  0  0
  3 20  1  0  0  0  0
  3 21  1  0  0  0  0
  4  6  1  0  0  0  0
  4 22  1  0  0  0  0
  4 23  1  0  0  0  0
  5  7  1  0  0  0  0
  5 24  1  0  0  0  0
  5 25  1  0  0  0  0
  6  8  1  0  0  0  0
  6 26  1  0  0  0  0
  6 27  1  0  0  0  0
  7  9  1  0  0  0  0
  7 28  1  0  0  0  0
  7 29  1  0  0  0  0
  8 10  1  0  0  0  0
  8 30  1  0  0  0  0
  8 31  1  0  0  0  0
  9 32  1  0  0  0  0
  9 33  1  0  0  0  0
 10 34  1  0  0  0  0
 10 35  1  0  0  0  0
 10 36  1  0  0  0  0
 11 12  1  0  0  0  0
 12 13  2  0  0  0  0
 12 37  1  0  0  0  0
 13 14  1  0  0  0  0
 13 38  1  0  0  0  0
 14 15  2  0  0  0  0
 14 16  1  0  0  0  0
 15 17  1  0  0  0  0
 15 39  1  0  0  0  0
 16 18  2  0  0  0  0
 16 40  1  0  0  0  0
 17 19  2  0  0  0  0
 17 41  1  0  0  0  0
 18 19  1  0  0  0  0
 18 42  1  0  0  0  0
 19 43  1  0  0  0  0
M  END
> <PUBCHEM_COMPOUND_CID>
5273468

> <PUBCHEM_CONFORMER_RMSD>
1

> <PUBCHEM_CONFORMER_DIVERSEORDER>
1
36
30
60
75
8
25
90
39
28
27
18
41
85
80
10
6
33
5
64
9
17
32
84
2
82
77
69
65
40
11
57
20
70
48
61
66
13
50
15
43
72
89
68
24
58
56
21
14
49
52
53
42
54
76
86
35
19
45
71
3
23
67
31
38
62
37
79
74
16
78
44
22
55
4
88
51
29
83
12
87
59
46
7
34
63
73
47
26
81

> <PUBCHEM_MMFF94_PARTIAL_CHARGES>
19
1 -0.43
11 0.71
12 -0.14
13 -0.18
14 0.03
15 -0.15
16 -0.15
17 -0.15
18 -0.15
19 -0.15
2 -0.57
37 0.15
38 0.15
39 0.15
40 0.15
41 0.15
42 0.15
43 0.15
9 0.28

> <PUBCHEM_EFFECTIVE_ROTOR_COUNT>
10

> <PUBCHEM_PHARMACOPHORE_FEATURES>
5
1 10 hydrophobe
1 2 acceptor
3 3 5 7 hydrophobe
3 4 6 8 hydrophobe
6 14 15 16 17 18 19 rings

> <PUBCHEM_HEAVY_ATOM_COUNT>
19

> <PUBCHEM_ATOM_DEF_STEREO_COUNT>
0

> <PUBCHEM_ATOM_UDEF_STEREO_COUNT>
0

> <PUBCHEM_BOND_DEF_STEREO_COUNT>
1

> <PUBCHEM_BOND_UDEF_STEREO_COUNT>
0

> <PUBCHEM_ISOTOPIC_ATOM_COUNT>
0

> <PUBCHEM_COMPONENT_COUNT>
1

> <PUBCHEM_CACTVS_TAUTO_COUNT>
1

> <PUBCHEM_CONFORMER_ID>
0050777C00000001

> <PUBCHEM_MMFF94_ENERGY>
27.4515

> <PUBCHEM_FEATURE_SELFOVERLAP>
25.384

> <PUBCHEM_SHAPE_FINGERPRINT>
10 15 18259703393424130955
106641 1 17821451266218270347
10670039 82 17418096481824963553
10730089 173 18342175553348151897
11315181 36 17704357684222453995
12091667 2 18411699902950611775
125118 31 18336828684807180728
13073987 5 14490735829497948698
14123256 10 16917069958101510960
14178184 131 11242556422248828185
14251764 18 18040995142007908138
14251764 46 18410573993741385731
14344974 52 17489016162626357993
14428016 248 17676213494414873228
14729087 3 18411417302043506156
14933364 13 18410856555344835312
15183329 4 15770056111937459318
15461852 350 17846776355578563903
155225 1 18412825760029360673
15690457 1 9511462213301907632
15716309 27 11674884398188529435
20281389 69 18333730208703441196
20621476 66 18408042931492293038
20621476 8 18342177761509779958
20735858 18 13839983313919924858
21150785 3 13973966502446012368
21304253 13 18335138717575061836
21360443 89 17968667137947844099
22224240 67 15502376738017427288
22288116 15 17417516008842519175
23035841 295 9655574115326602199
23521765 1 18342176678898426858
246663 6 12035447234091164696
28498 318 18060704975469886830
33532 11 9655587301398999004
33684 2 12103850055920993062
4073 2 18186806889432261778
4325135 7 11527950053983609784
5758199 1 17603866702495031442
59567204 34 18341049636341165625
59682541 35 17240488021798558744
5969126 39 13901914388464985010
636775 72 18339080389826020169
636775 8 14404891528285529765
67123 10 18410855481640116418
8209 1 18060138752329223634
9980921 7 18115304472607066453

> <PUBCHEM_SHAPE_MULTIPOLES>
379.27
30.6
1.59
0.63
51.06
0.09
0.01
15.51
1.54
-1.85
-0.12
-0.12
0.02
0.28

> <PUBCHEM_SHAPE_SELFOVERLAP>
747.531

> <PUBCHEM_SHAPE_VOLUME>
226.3

> <PUBCHEM_COORDINATE_TYPE>
2
5
10

$$$$
