527442
  -OEChem-11232109103D

 26 25  0     1  0  0  0  0  0999 V2000
   -1.1943   -2.5861   -0.3261 S   0  0  0  0  0  0  0  0  0  0  0  0
   -3.2376    2.0105   -0.2935 O   0  0  0  0  0  0  0  0  0  0  0  0
   -0.2267    0.0152   -0.1314 C   0  0  0  0  0  0  0  0  0  0  0  0
    1.1520   -0.4828    0.3224 C   0  0  0  0  0  0  0  0  0  0  0  0
   -1.3925   -0.8846    0.3230 C   0  0  1  0  0  0  0  0  0  0  0  0
    2.2653    0.4419   -0.1769 C   0  0  0  0  0  0  0  0  0  0  0  0
    3.6426   -0.0643    0.2512 C   0  0  0  0  0  0  0  0  0  0  0  0
   -2.7447   -0.3460   -0.1589 C   0  0  0  0  0  0  0  0  0  0  0  0
    4.7485    0.8690   -0.2150 C   0  0  0  0  0  0  0  0  0  0  0  0
   -3.0127    1.0272    0.4052 C   0  0  0  0  0  0  0  0  0  0  0  0
   -0.3695    1.0268    0.2685 H   0  0  0  0  0  0  0  0  0  0  0  0
   -0.2371    0.1120   -1.2253 H   0  0  0  0  0  0  0  0  0  0  0  0
    1.1787   -0.5364    1.4175 H   0  0  0  0  0  0  0  0  0  0  0  0
    1.3517   -1.4901   -0.0569 H   0  0  0  0  0  0  0  0  0  0  0  0
   -1.3891   -0.9456    1.4177 H   0  0  0  0  0  0  0  0  0  0  0  0
    2.2247    0.5110   -1.2708 H   0  0  0  0  0  0  0  0  0  0  0  0
    2.1055    1.4530    0.2172 H   0  0  0  0  0  0  0  0  0  0  0  0
    3.8172   -1.0646   -0.1620 H   0  0  0  0  0  0  0  0  0  0  0  0
    3.6843   -0.1523    1.3431 H   0  0  0  0  0  0  0  0  0  0  0  0
   -2.7828   -0.2804   -1.2530 H   0  0  0  0  0  0  0  0  0  0  0  0
   -3.5678   -0.9896    0.1729 H   0  0  0  0  0  0  0  0  0  0  0  0
    4.6217    1.8703    0.2088 H   0  0  0  0  0  0  0  0  0  0  0  0
    5.7246    0.4877    0.1009 H   0  0  0  0  0  0  0  0  0  0  0  0
    4.7546    0.9557   -1.3062 H   0  0  0  0  0  0  0  0  0  0  0  0
   -2.2365   -3.1226    0.3256 H   0  0  0  0  0  0  0  0  0  0  0  0
   -3.0222    1.1005    1.5062 H   0  0  0  0  0  0  0  0  0  0  0  0
  1  5  1  0  0  0  0
  1 25  1  0  0  0  0
  2 10  2  0  0  0  0
  3  4  1  0  0  0  0
  3  5  1  0  0  0  0
  3 11  1  0  0  0  0
  3 12  1  0  0  0  0
  4  6  1  0  0  0  0
  4 13  1  0  0  0  0
  4 14  1  0  0  0  0
  5  8  1  0  0  0  0
  5 15  1  0  0  0  0
  6  7  1  0  0  0  0
  6 16  1  0  0  0  0
  6 17  1  0  0  0  0
  7  9  1  0  0  0  0
  7 18  1  0  0  0  0
  7 19  1  0  0  0  0
  8 10  1  0  0  0  0
  8 20  1  0  0  0  0
  8 21  1  0  0  0  0
  9 22  1  0  0  0  0
  9 23  1  0  0  0  0
  9 24  1  0  0  0  0
 10 26  1  0  0  0  0
M  END
> <PUBCHEM_COMPOUND_CID>
527442

> <PUBCHEM_CONFORMER_RMSD>
0.6

> <PUBCHEM_CONFORMER_DIVERSEORDER>
1
152
75
144
160
114
60
56
166
153
76
22
154
146
47
35
15
51
164
102
158
23
141
101
5
163
129
92
95
8
159
24
94
81
131
32
149
61
155
13
59
135
30
145
19
142
121
80
167
52
40
57
48
162
6
132
115
151
74
64
10
108
156
77
124
3
103
34
118
2
150
111
45
161
66
148
62
134
25
72
157
123
54
42
46
143
4
104
65
122
96
26
130
137
14
55
82
105
120
7
138
98
27
107
17
97
88
99
165
126
16
85
58
53
125
33
84
147
139
12
133
31
116
69
90
43
87
136
110
91
41
109
79
140
18
83
100
112
71
28
117
9
86
38
20
128
49
89
36
67
11
106
113
119
21
37
127
70
68
29
93
78
39
44
50
63
73

> <PUBCHEM_MMFF94_PARTIAL_CHARGES>
7
1 -0.41
10 0.45
2 -0.57
25 0.18
26 0.06
5 0.23
8 0.06

> <PUBCHEM_EFFECTIVE_ROTOR_COUNT>
6

> <PUBCHEM_PHARMACOPHORE_FEATURES>
3
1 2 acceptor
1 9 hydrophobe
4 3 4 6 7 hydrophobe

> <PUBCHEM_HEAVY_ATOM_COUNT>
10

> <PUBCHEM_ATOM_DEF_STEREO_COUNT>
0

> <PUBCHEM_ATOM_UDEF_STEREO_COUNT>
1

> <PUBCHEM_BOND_DEF_STEREO_COUNT>
0

> <PUBCHEM_BOND_UDEF_STEREO_COUNT>
0

> <PUBCHEM_ISOTOPIC_ATOM_COUNT>
0

> <PUBCHEM_COMPONENT_COUNT>
1

> <PUBCHEM_CACTVS_TAUTO_COUNT>
2

> <PUBCHEM_CONFORMER_ID>
00080C5200000001

> <PUBCHEM_MMFF94_ENERGY>
6.6218

> <PUBCHEM_FEATURE_SELFOVERLAP>
15.223

> <PUBCHEM_SHAPE_FINGERPRINT>
11357001 24 18189060961415183995
12500047 106 18343016709887240858
12932764 1 18200876296144846714
14123255 52 18409164377022144992
14325111 11 18410855434374344730
15775835 57 18334575698690556177
17834072 32 18337673022936036285
20524608 308 18271243923235692991
20645477 56 18341618139253932920
20645477 70 16845307012158658862
23402539 116 18342450495927584071
305870 269 18263925440992394955
6333449 129 18412824707160460175
6430166 295 18409445856615602352

> <PUBCHEM_SHAPE_MULTIPOLES>
203.78
7.7
2.01
0.69
8.34
0.79
-0.01
-3.76
0.27
-2.37
0.26
-0.02
0.03
-0.15

> <PUBCHEM_SHAPE_SELFOVERLAP>
356.682

> <PUBCHEM_SHAPE_VOLUME>
134.7

> <PUBCHEM_COORDINATE_TYPE>
2
5
10

$$$$
