527435
  -OEChem-11232109053D

 20 19  0     1  0  0  0  0  0999 V2000
   -1.8107    1.6587   -0.2959 S   0  0  0  0  0  0  0  0  0  0  0  0
    2.5345   -0.9735    0.1241 O   0  0  0  0  0  0  0  0  0  0  0  0
   -0.6857    0.2239   -0.5167 C   0  0  1  0  0  0  0  0  0  0  0  0
    0.7864    0.6673   -0.3310 C   0  0  1  0  0  0  0  0  0  0  0  0
   -1.0973   -0.9437    0.4011 C   0  0  0  0  0  0  0  0  0  0  0  0
    1.1216    1.2585    1.0392 C   0  0  0  0  0  0  0  0  0  0  0  0
   -2.5478   -1.3812    0.2248 C   0  0  0  0  0  0  0  0  0  0  0  0
    1.6991   -0.5101   -0.6456 C   0  0  0  0  0  0  0  0  0  0  0  0
   -0.8170   -0.1061   -1.5552 H   0  0  0  0  0  0  0  0  0  0  0  0
    1.0254    1.4257   -1.0891 H   0  0  0  0  0  0  0  0  0  0  0  0
   -0.9407   -0.6866    1.4551 H   0  0  0  0  0  0  0  0  0  0  0  0
   -0.4596   -1.8111    0.1938 H   0  0  0  0  0  0  0  0  0  0  0  0
    2.1827    1.5303    1.0866 H   0  0  0  0  0  0  0  0  0  0  0  0
    0.5512    2.1675    1.2492 H   0  0  0  0  0  0  0  0  0  0  0  0
    0.9415    0.5432    1.8479 H   0  0  0  0  0  0  0  0  0  0  0  0
   -3.2550   -0.6409    0.6095 H   0  0  0  0  0  0  0  0  0  0  0  0
   -2.7768   -1.5743   -0.8281 H   0  0  0  0  0  0  0  0  0  0  0  0
   -2.7229   -2.3090    0.7801 H   0  0  0  0  0  0  0  0  0  0  0  0
    1.5803   -0.9365   -1.6575 H   0  0  0  0  0  0  0  0  0  0  0  0
   -1.3094    2.4015   -1.2936 H   0  0  0  0  0  0  0  0  0  0  0  0
  1  3  1  0  0  0  0
  1 20  1  0  0  0  0
  2  8  2  0  0  0  0
  3  4  1  0  0  0  0
  3  5  1  0  0  0  0
  3  9  1  0  0  0  0
  4  6  1  0  0  0  0
  4  8  1  0  0  0  0
  4 10  1  0  0  0  0
  5  7  1  0  0  0  0
  5 11  1  0  0  0  0
  5 12  1  0  0  0  0
  6 13  1  0  0  0  0
  6 14  1  0  0  0  0
  6 15  1  0  0  0  0
  7 16  1  0  0  0  0
  7 17  1  0  0  0  0
  7 18  1  0  0  0  0
  8 19  1  0  0  0  0
M  END
> <PUBCHEM_COMPOUND_CID>
527435

> <PUBCHEM_CONFORMER_RMSD>
0.6

> <PUBCHEM_CONFORMER_DIVERSEORDER>
2
21
8
24
23
7
29
25
14
4
11
26
6
19
30
17
9
22
18
1
27
20
15
10
16
5
3
13
12
28

> <PUBCHEM_MMFF94_PARTIAL_CHARGES>
7
1 -0.41
19 0.06
2 -0.57
20 0.18
3 0.23
4 0.06
8 0.45

> <PUBCHEM_EFFECTIVE_ROTOR_COUNT>
3

> <PUBCHEM_PHARMACOPHORE_FEATURES>
3
1 2 acceptor
1 6 hydrophobe
1 7 hydrophobe

> <PUBCHEM_HEAVY_ATOM_COUNT>
8

> <PUBCHEM_ATOM_DEF_STEREO_COUNT>
0

> <PUBCHEM_ATOM_UDEF_STEREO_COUNT>
2

> <PUBCHEM_BOND_DEF_STEREO_COUNT>
0

> <PUBCHEM_BOND_UDEF_STEREO_COUNT>
0

> <PUBCHEM_ISOTOPIC_ATOM_COUNT>
0

> <PUBCHEM_COMPONENT_COUNT>
1

> <PUBCHEM_CACTVS_TAUTO_COUNT>
2

> <PUBCHEM_CONFORMER_ID>
00080C4B00000002

> <PUBCHEM_MMFF94_ENERGY>
11.9955

> <PUBCHEM_FEATURE_SELFOVERLAP>
15.223

> <PUBCHEM_SHAPE_FINGERPRINT>
20711978 78 17632021947727799613
21040471 1 18117835486977807533
22082395 3 18049724014386346004
23552423 10 18040721397734927503
23552449 11 17987244502303147331
24536 1 18188758556614096012
29004967 10 18048037659975693787
5084963 1 18335981965625664357

> <PUBCHEM_SHAPE_MULTIPOLES>
162.62
3.31
1.76
0.89
0.02
0.31
0.09
-1.14
0.08
-0.81
0.14
0.17
0.16
0.5

> <PUBCHEM_SHAPE_SELFOVERLAP>
284.709

> <PUBCHEM_SHAPE_VOLUME>
108.8

> <PUBCHEM_COORDINATE_TYPE>
2
5
10

$$$$
