527498
  -OEChem-11232108573D

 42 43  0     1  0  0  0  0  0999 V2000
   -0.3928    2.3218    0.6706 O   0  0  0  0  0  0  0  0  0  0  0  0
   -1.1704   -1.0714   -0.2397 C   0  0  1  0  0  0  0  0  0  0  0  0
   -0.7206    0.3524   -0.7342 C   0  0  2  0  0  0  0  0  0  0  0  0
    0.8164    0.4142   -0.9646 C   0  0  0  0  0  0  0  0  0  0  0  0
    1.6545   -0.0927    0.2182 C   0  0  1  0  0  0  0  0  0  0  0  0
   -0.2752   -1.5365    0.9458 C   0  0  0  0  0  0  0  0  0  0  0  0
   -2.6562   -1.0668    0.2243 C   0  0  0  0  0  0  0  0  0  0  0  0
    1.2191   -1.4950    0.6402 C   0  0  0  0  0  0  0  0  0  0  0  0
   -1.1448    1.4188    0.3011 C   0  0  0  0  0  0  0  0  0  0  0  0
   -1.0680   -2.1303   -1.3683 C   0  0  0  0  0  0  0  0  0  0  0  0
   -2.9799    0.0111    1.2546 C   0  0  0  0  0  0  0  0  0  0  0  0
   -1.3905    0.7718   -2.0642 C   0  0  0  0  0  0  0  0  0  0  0  0
    3.1428   -0.0758   -0.1322 C   0  0  0  0  0  0  0  0  0  0  0  0
   -2.5823    1.3932    0.7749 C   0  0  0  0  0  0  0  0  0  0  0  0
    3.5693    1.3172   -0.5874 C   0  0  0  0  0  0  0  0  0  0  0  0
    3.9784   -0.5321    1.0609 C   0  0  0  0  0  0  0  0  0  0  0  0
    1.0774    1.4537   -1.1954 H   0  0  0  0  0  0  0  0  0  0  0  0
    1.0764   -0.1677   -1.8588 H   0  0  0  0  0  0  0  0  0  0  0  0
    1.4918    0.5796    1.0713 H   0  0  0  0  0  0  0  0  0  0  0  0
   -0.5481   -2.5570    1.2438 H   0  0  0  0  0  0  0  0  0  0  0  0
   -0.4489   -0.9089    1.8274 H   0  0  0  0  0  0  0  0  0  0  0  0
   -2.9175   -2.0457    0.6472 H   0  0  0  0  0  0  0  0  0  0  0  0
   -3.3184   -0.9288   -0.6400 H   0  0  0  0  0  0  0  0  0  0  0  0
    1.7381   -1.8086    1.5522 H   0  0  0  0  0  0  0  0  0  0  0  0
    1.4716   -2.2298   -0.1329 H   0  0  0  0  0  0  0  0  0  0  0  0
   -1.2833   -3.1339   -0.9825 H   0  0  0  0  0  0  0  0  0  0  0  0
   -1.7897   -1.9380   -2.1696 H   0  0  0  0  0  0  0  0  0  0  0  0
   -0.0743   -2.1617   -1.8237 H   0  0  0  0  0  0  0  0  0  0  0  0
   -2.4781   -0.2110    2.2027 H   0  0  0  0  0  0  0  0  0  0  0  0
   -4.0551   -0.0032    1.4688 H   0  0  0  0  0  0  0  0  0  0  0  0
   -2.4804    0.6839   -2.0284 H   0  0  0  0  0  0  0  0  0  0  0  0
   -1.1651    1.8190   -2.3012 H   0  0  0  0  0  0  0  0  0  0  0  0
   -1.0367    0.1673   -2.9061 H   0  0  0  0  0  0  0  0  0  0  0  0
    3.3390   -0.7698   -0.9603 H   0  0  0  0  0  0  0  0  0  0  0  0
   -2.6978    2.1118    1.5939 H   0  0  0  0  0  0  0  0  0  0  0  0
   -3.2262    1.7264   -0.0453 H   0  0  0  0  0  0  0  0  0  0  0  0
    3.2490    2.0897    0.1201 H   0  0  0  0  0  0  0  0  0  0  0  0
    4.6606    1.3783   -0.6701 H   0  0  0  0  0  0  0  0  0  0  0  0
    3.1769    1.5633   -1.5787 H   0  0  0  0  0  0  0  0  0  0  0  0
    3.7252    0.0267    1.9683 H   0  0  0  0  0  0  0  0  0  0  0  0
    5.0458   -0.3781    0.8655 H   0  0  0  0  0  0  0  0  0  0  0  0
    3.8567   -1.6003    1.2628 H   0  0  0  0  0  0  0  0  0  0  0  0
  1  9  2  0  0  0  0
  2  3  1  0  0  0  0
  2  6  1  0  0  0  0
  2  7  1  0  0  0  0
  2 10  1  0  0  0  0
  3  4  1  0  0  0  0
  3  9  1  0  0  0  0
  3 12  1  0  0  0  0
  4  5  1  0  0  0  0
  4 17  1  0  0  0  0
  4 18  1  0  0  0  0
  5  8  1  0  0  0  0
  5 13  1  0  0  0  0
  5 19  1  0  0  0  0
  6  8  1  0  0  0  0
  6 20  1  0  0  0  0
  6 21  1  0  0  0  0
  7 11  1  0  0  0  0
  7 22  1  0  0  0  0
  7 23  1  0  0  0  0
  8 24  1  0  0  0  0
  8 25  1  0  0  0  0
  9 14  1  0  0  0  0
 10 26  1  0  0  0  0
 10 27  1  0  0  0  0
 10 28  1  0  0  0  0
 11 14  1  0  0  0  0
 11 29  1  0  0  0  0
 11 30  1  0  0  0  0
 12 31  1  0  0  0  0
 12 32  1  0  0  0  0
 12 33  1  0  0  0  0
 13 15  1  0  0  0  0
 13 16  1  0  0  0  0
 13 34  1  0  0  0  0
 14 35  1  0  0  0  0
 14 36  1  0  0  0  0
 15 37  1  0  0  0  0
 15 38  1  0  0  0  0
 15 39  1  0  0  0  0
 16 40  1  0  0  0  0
 16 41  1  0  0  0  0
 16 42  1  0  0  0  0
M  END
> <PUBCHEM_COMPOUND_CID>
527498

> <PUBCHEM_CONFORMER_RMSD>
0.6

> <PUBCHEM_CONFORMER_DIVERSEORDER>
3
12
17
13
18
5
8
23
14
10
4
24
11
9
1
15
2
7
21
16
20
6
22
19

> <PUBCHEM_MMFF94_PARTIAL_CHARGES>
4
1 -0.57
14 0.06
3 0.06
9 0.45

> <PUBCHEM_EFFECTIVE_ROTOR_COUNT>
2.4

> <PUBCHEM_PHARMACOPHORE_FEATURES>
4
1 1 acceptor
3 13 15 16 hydrophobe
6 2 3 4 5 6 8 rings
6 2 3 7 9 11 14 rings

> <PUBCHEM_HEAVY_ATOM_COUNT>
16

> <PUBCHEM_ATOM_DEF_STEREO_COUNT>
0

> <PUBCHEM_ATOM_UDEF_STEREO_COUNT>
3

> <PUBCHEM_BOND_DEF_STEREO_COUNT>
0

> <PUBCHEM_BOND_UDEF_STEREO_COUNT>
0

> <PUBCHEM_ISOTOPIC_ATOM_COUNT>
0

> <PUBCHEM_COMPONENT_COUNT>
1

> <PUBCHEM_CACTVS_TAUTO_COUNT>
2

> <PUBCHEM_CONFORMER_ID>
00080C8A00000003

> <PUBCHEM_MMFF94_ENERGY>
45.4887

> <PUBCHEM_FEATURE_SELFOVERLAP>
20.355

> <PUBCHEM_SHAPE_FINGERPRINT>
10863032 1 17345766191617871527
10948715 1 18200604583523155353
11132069 177 18413392016284193072
11578080 2 18045474642474243205
12173636 292 18131348592109384468
12382932 28 18411709763604407121
12403814 3 17821443581873217077
12423570 1 14820972325570729263
12491281 212 18272664449361321666
12808571 1 18341900662397842562
13024252 1 16877655751832432175
13027679 85 17472149847461204664
14614273 12 18114170921890858335
14787075 74 18117853306881372107
14817 1 13437494373584936751
15076042 46 18196656189732930112
15309172 13 18341055133497780155
15375462 478 18262251013795834987
15557651 10 16772948082766739587
15775835 57 18340496585817129312
16945 1 18187945974935285315
17844478 74 17385445418627529110
18186145 218 18335419063317556524
19837323 101 17845929632819653526
19868273 325 18271518805589993878
200 152 18336530681793657711
20525323 117 18411696612541374446
22112679 90 17627242487136877047
2306618 200 18041827433550024844
23236772 104 18334860545037122778
23402539 116 17845923109128536087
23419403 2 17836615863405612693
23557571 272 17702660102994227538
23559900 14 18129678408862759252
2748010 2 17977952284660093828
369184 2 17458058261816324190
45790113 50 18041002834473884742
5706482 22 18200025132136473739

> <PUBCHEM_SHAPE_MULTIPOLES>
323.4
5.22
2.02
1.45
4.79
0.03
-0.48
0.53
1.41
-0.54
0.02
-0.59
0.01
-0.66

> <PUBCHEM_SHAPE_SELFOVERLAP>
660.811

> <PUBCHEM_SHAPE_VOLUME>
186.3

> <PUBCHEM_COORDINATE_TYPE>
2
5
10

$$$$
