527445
  -OEChem-11232109463D

 20 19  0     1  0  0  0  0  0999 V2000
    0.5844   -2.4483   -0.2747 S   0  0  0  0  0  0  0  0  0  0  0  0
   -2.6449    1.4322   -0.3172 O   0  0  0  0  0  0  0  0  0  0  0  0
    0.7379    0.3329   -0.1248 C   0  0  0  0  0  0  0  0  0  0  0  0
   -0.1098   -0.8652    0.3395 C   0  0  1  0  0  0  0  0  0  0  0  0
    2.2063    0.2597    0.3088 C   0  0  0  0  0  0  0  0  0  0  0  0
   -1.5587   -0.7138   -0.1407 C   0  0  0  0  0  0  0  0  0  0  0  0
    2.9907    1.4643   -0.1902 C   0  0  0  0  0  0  0  0  0  0  0  0
   -2.2058    0.5381    0.3993 C   0  0  0  0  0  0  0  0  0  0  0  0
    0.3140    1.2610    0.2782 H   0  0  0  0  0  0  0  0  0  0  0  0
    0.6881    0.4208   -1.2185 H   0  0  0  0  0  0  0  0  0  0  0  0
   -0.0920   -0.9061    1.4350 H   0  0  0  0  0  0  0  0  0  0  0  0
    2.6955   -0.6379   -0.0814 H   0  0  0  0  0  0  0  0  0  0  0  0
    2.2668    0.2159    1.4023 H   0  0  0  0  0  0  0  0  0  0  0  0
   -1.6118   -0.6803   -1.2357 H   0  0  0  0  0  0  0  0  0  0  0  0
   -2.1721   -1.5568    0.1985 H   0  0  0  0  0  0  0  0  0  0  0  0
    2.9776    1.5158   -1.2836 H   0  0  0  0  0  0  0  0  0  0  0  0
    2.5717    2.3959    0.2034 H   0  0  0  0  0  0  0  0  0  0  0  0
    4.0340    1.3981    0.1344 H   0  0  0  0  0  0  0  0  0  0  0  0
   -0.2740   -3.2524    0.3696 H   0  0  0  0  0  0  0  0  0  0  0  0
   -2.2774    0.6046    1.4985 H   0  0  0  0  0  0  0  0  0  0  0  0
  1  4  1  0  0  0  0
  1 19  1  0  0  0  0
  2  8  2  0  0  0  0
  3  4  1  0  0  0  0
  3  5  1  0  0  0  0
  3  9  1  0  0  0  0
  3 10  1  0  0  0  0
  4  6  1  0  0  0  0
  4 11  1  0  0  0  0
  5  7  1  0  0  0  0
  5 12  1  0  0  0  0
  5 13  1  0  0  0  0
  6  8  1  0  0  0  0
  6 14  1  0  0  0  0
  6 15  1  0  0  0  0
  7 16  1  0  0  0  0
  7 17  1  0  0  0  0
  7 18  1  0  0  0  0
  8 20  1  0  0  0  0
M  END
> <PUBCHEM_COMPOUND_CID>
527445

> <PUBCHEM_CONFORMER_RMSD>
0.6

> <PUBCHEM_CONFORMER_DIVERSEORDER>
1
27
2
14
11
23
19
25
5
13
3
21
10
16
26
17
8
22
12
7
20
4
18
15
6
9
24

> <PUBCHEM_MMFF94_PARTIAL_CHARGES>
7
1 -0.41
19 0.18
2 -0.57
20 0.06
4 0.23
6 0.06
8 0.45

> <PUBCHEM_EFFECTIVE_ROTOR_COUNT>
4

> <PUBCHEM_PHARMACOPHORE_FEATURES>
2
1 2 acceptor
1 7 hydrophobe

> <PUBCHEM_HEAVY_ATOM_COUNT>
8

> <PUBCHEM_ATOM_DEF_STEREO_COUNT>
0

> <PUBCHEM_ATOM_UDEF_STEREO_COUNT>
1

> <PUBCHEM_BOND_DEF_STEREO_COUNT>
0

> <PUBCHEM_BOND_UDEF_STEREO_COUNT>
0

> <PUBCHEM_ISOTOPIC_ATOM_COUNT>
0

> <PUBCHEM_COMPONENT_COUNT>
1

> <PUBCHEM_CACTVS_TAUTO_COUNT>
2

> <PUBCHEM_CONFORMER_ID>
00080C5500000001

> <PUBCHEM_MMFF94_ENERGY>
7.2957

> <PUBCHEM_FEATURE_SELFOVERLAP>
10.148

> <PUBCHEM_SHAPE_FINGERPRINT>
14325111 11 18410575114960030064
14390081 3 18412544322921086297
170605 34 18261392209198833105
19021347 4 18409450327339408682
20653085 51 18339374031869158120
20871998 184 17980773953730803590
21028194 46 18408327700118056560
21040471 1 18340204197618702042
23552423 10 18268989791565833415
23552449 1 17619627325162928114

> <PUBCHEM_SHAPE_MULTIPOLES>
162.62
4.04
2.17
0.69
0.87
1.34
-0.01
-3.04
0.12
0.12
0.29
0
0.03
0.01

> <PUBCHEM_SHAPE_SELFOVERLAP>
280.801

> <PUBCHEM_SHAPE_VOLUME>
109.2

> <PUBCHEM_COORDINATE_TYPE>
2
5
10

$$$$
