527821
  -OEChem-11232109033D

 18 18  0     0  0  0  0  0  0999 V2000
    2.8277    0.7332   -0.0004 O   0  0  0  0  0  0  0  0  0  0  0  0
   -0.3186   -0.8753    0.0002 N   0  0  0  0  0  0  0  0  0  0  0  0
   -1.2103    1.7838    0.0001 N   0  0  0  0  0  0  0  0  0  0  0  0
    0.5386    0.1648    0.0001 C   0  0  0  0  0  0  0  0  0  0  0  0
   -1.6297   -0.5623    0.0000 C   0  0  0  0  0  0  0  0  0  0  0  0
    1.9529   -0.1582    0.0001 C   0  0  0  0  0  0  0  0  0  0  0  0
    0.1005    1.4709    0.0001 C   0  0  0  0  0  0  0  0  0  0  0  0
   -2.0676    0.7438   -0.0001 C   0  0  0  0  0  0  0  0  0  0  0  0
   -2.6059   -1.6865   -0.0002 C   0  0  0  0  0  0  0  0  0  0  0  0
    2.4125   -1.6141    0.0001 C   0  0  0  0  0  0  0  0  0  0  0  0
    0.7751    2.3189    0.0002 H   0  0  0  0  0  0  0  0  0  0  0  0
   -3.1197    1.0036   -0.0003 H   0  0  0  0  0  0  0  0  0  0  0  0
   -3.2397   -1.6410    0.8911 H   0  0  0  0  0  0  0  0  0  0  0  0
   -3.2393   -1.6410   -0.8918 H   0  0  0  0  0  0  0  0  0  0  0  0
   -2.0918   -2.6533   -0.0001 H   0  0  0  0  0  0  0  0  0  0  0  0
    2.0499   -2.1165   -0.9003 H   0  0  0  0  0  0  0  0  0  0  0  0
    2.0448   -2.1184    0.8975 H   0  0  0  0  0  0  0  0  0  0  0  0
    3.5059   -1.6514    0.0033 H   0  0  0  0  0  0  0  0  0  0  0  0
  1  6  2  0  0  0  0
  2  4  2  0  0  0  0
  2  5  1  0  0  0  0
  3  7  2  0  0  0  0
  3  8  1  0  0  0  0
  4  6  1  0  0  0  0
  4  7  1  0  0  0  0
  5  8  2  0  0  0  0
  5  9  1  0  0  0  0
  6 10  1  0  0  0  0
  7 11  1  0  0  0  0
  8 12  1  0  0  0  0
  9 13  1  0  0  0  0
  9 14  1  0  0  0  0
  9 15  1  0  0  0  0
 10 16  1  0  0  0  0
 10 17  1  0  0  0  0
 10 18  1  0  0  0  0
M  END
> <PUBCHEM_COMPOUND_CID>
527821

> <PUBCHEM_CONFORMER_RMSD>
0.4

> <PUBCHEM_CONFORMER_DIVERSEORDER>
1
3
2
4

> <PUBCHEM_MMFF94_PARTIAL_CHARGES>
12
1 -0.57
10 0.06
11 0.15
12 0.15
2 -0.62
3 -0.62
4 0.4
5 0.17
6 0.42
7 0.16
8 0.16
9 0.14

> <PUBCHEM_EFFECTIVE_ROTOR_COUNT>
1

> <PUBCHEM_PHARMACOPHORE_FEATURES>
4
1 1 acceptor
1 2 acceptor
1 3 acceptor
6 2 3 4 5 7 8 rings

> <PUBCHEM_HEAVY_ATOM_COUNT>
10

> <PUBCHEM_ATOM_DEF_STEREO_COUNT>
0

> <PUBCHEM_ATOM_UDEF_STEREO_COUNT>
0

> <PUBCHEM_BOND_DEF_STEREO_COUNT>
0

> <PUBCHEM_BOND_UDEF_STEREO_COUNT>
0

> <PUBCHEM_ISOTOPIC_ATOM_COUNT>
0

> <PUBCHEM_COMPONENT_COUNT>
1

> <PUBCHEM_CACTVS_TAUTO_COUNT>
2

> <PUBCHEM_CONFORMER_ID>
00080DCD00000001

> <PUBCHEM_MMFF94_ENERGY>
24.0675

> <PUBCHEM_FEATURE_SELFOVERLAP>
20.301

> <PUBCHEM_SHAPE_FINGERPRINT>
10857977 72 18340757260282971680
12716758 59 18266171734372806419
12897270 3 18410575110723000686
12932764 1 17604430678644708708
14128692 85 18267028443041390677
16945 1 18338517546486294469
19973954 147 18411420570766767540
20201158 50 18262514939203929619
20871998 184 18201720647833739879
20871998 22 18269006430232299335
21040471 1 18050286972766165057
23552423 10 18260552195100056086
2748010 2 18411417289116289502
29004967 10 18337956804203988314
369184 2 18411135796938591032
5084963 1 17984694524347832224

> <PUBCHEM_SHAPE_MULTIPOLES>
189.96
3.9
1.88
0.59
1.06
0.04
0
1.32
0
-0.47
0
-0.02
0.02
0

> <PUBCHEM_SHAPE_SELFOVERLAP>
390.496

> <PUBCHEM_SHAPE_VOLUME>
109.9

> <PUBCHEM_COORDINATE_TYPE>
2
5
10

$$$$
