5280511
  -OEChem-11232109153D

 20 20  0     0  0  0  0  0  0999 V2000
    3.3425   -1.1689    0.1859 O   0  0  0  0  0  0  0  0  0  0  0  0
   -0.2855    0.5362   -0.3261 C   0  0  0  0  0  0  0  0  0  0  0  0
    0.9674    1.2081   -0.6342 C   0  0  0  0  0  0  0  0  0  0  0  0
   -1.3258    1.2430    0.2769 C   0  0  0  0  0  0  0  0  0  0  0  0
   -0.4467   -0.8145   -0.6342 C   0  0  0  0  0  0  0  0  0  0  0  0
   -2.5275    0.5990    0.5720 C   0  0  0  0  0  0  0  0  0  0  0  0
   -1.6483   -1.4586   -0.3393 C   0  0  0  0  0  0  0  0  0  0  0  0
    2.1858    0.8722   -0.1526 C   0  0  0  0  0  0  0  0  0  0  0  0
   -2.6887   -0.7518    0.2638 C   0  0  0  0  0  0  0  0  0  0  0  0
    2.4267   -0.2647    0.7879 C   0  0  0  0  0  0  0  0  0  0  0  0
    0.8890    2.0754   -1.2854 H   0  0  0  0  0  0  0  0  0  0  0  0
   -1.2154    2.2962    0.5236 H   0  0  0  0  0  0  0  0  0  0  0  0
    0.3459   -1.3819   -1.1163 H   0  0  0  0  0  0  0  0  0  0  0  0
   -3.3377    1.1492    1.0416 H   0  0  0  0  0  0  0  0  0  0  0  0
   -1.7752   -2.5096   -0.5819 H   0  0  0  0  0  0  0  0  0  0  0  0
    3.0442    1.4695   -0.4490 H   0  0  0  0  0  0  0  0  0  0  0  0
   -3.6245   -1.2531    0.4928 H   0  0  0  0  0  0  0  0  0  0  0  0
    2.8994    0.1244    1.6958 H   0  0  0  0  0  0  0  0  0  0  0  0
    1.5416   -0.8178    1.1056 H   0  0  0  0  0  0  0  0  0  0  0  0
    2.9007   -1.5642   -0.5853 H   0  0  0  0  0  0  0  0  0  0  0  0
  1 10  1  0  0  0  0
  1 20  1  0  0  0  0
  2  3  1  0  0  0  0
  2  4  2  0  0  0  0
  2  5  1  0  0  0  0
  3  8  2  0  0  0  0
  3 11  1  0  0  0  0
  4  6  1  0  0  0  0
  4 12  1  0  0  0  0
  5  7  2  0  0  0  0
  5 13  1  0  0  0  0
  6  9  2  0  0  0  0
  6 14  1  0  0  0  0
  7  9  1  0  0  0  0
  7 15  1  0  0  0  0
  8 10  1  0  0  0  0
  8 16  1  0  0  0  0
  9 17  1  0  0  0  0
 10 18  1  0  0  0  0
 10 19  1  0  0  0  0
M  END
> <PUBCHEM_COMPOUND_CID>
5280511

> <PUBCHEM_CONFORMER_RMSD>
0.4

> <PUBCHEM_CONFORMER_DIVERSEORDER>
2
7
4
8
9
5
6
1
3

> <PUBCHEM_MMFF94_PARTIAL_CHARGES>
18
1 -0.68
10 0.42
11 0.15
12 0.15
13 0.15
14 0.15
15 0.15
16 0.15
17 0.15
2 0.03
20 0.4
3 -0.18
4 -0.15
5 -0.15
6 -0.15
7 -0.15
8 -0.29
9 -0.15

> <PUBCHEM_EFFECTIVE_ROTOR_COUNT>
2

> <PUBCHEM_PHARMACOPHORE_FEATURES>
3
1 1 acceptor
1 1 donor
6 2 4 5 6 7 9 rings

> <PUBCHEM_HEAVY_ATOM_COUNT>
10

> <PUBCHEM_ATOM_DEF_STEREO_COUNT>
0

> <PUBCHEM_ATOM_UDEF_STEREO_COUNT>
0

> <PUBCHEM_BOND_DEF_STEREO_COUNT>
1

> <PUBCHEM_BOND_UDEF_STEREO_COUNT>
0

> <PUBCHEM_ISOTOPIC_ATOM_COUNT>
0

> <PUBCHEM_COMPONENT_COUNT>
1

> <PUBCHEM_CACTVS_TAUTO_COUNT>
1

> <PUBCHEM_CONFORMER_ID>
005092FF00000002

> <PUBCHEM_MMFF94_ENERGY>
25.0014

> <PUBCHEM_FEATURE_SELFOVERLAP>
15.223

> <PUBCHEM_SHAPE_FINGERPRINT>
10857977 72 17346043393170583961
12932764 1 18338524143551007357
14390081 3 9943807793960063330
15076042 46 18343305846626639320
16945 1 18272380775640988589
20645464 45 16917069966464520636
20653085 51 9150633342676691797
20711985 344 16227147229315433420
20871998 184 17916870260672924359
21040471 1 18200896001496972629
21293036 1 8142079845443484361
22445834 79 18408603673368333146
23463225 33 18409733958299530878
23552423 10 17975418228296686205
2748010 2 17764043371587505149
29004967 10 16660921204949561877
369184 2 17632853152854043849
5084963 1 18408885144002629569

> <PUBCHEM_SHAPE_MULTIPOLES>
199.93
4.51
1.51
0.83
1.92
0.1
-0.01
1.11
-1.01
-0.07
0.09
0.06
-0.01
-0.44

> <PUBCHEM_SHAPE_SELFOVERLAP>
407.82

> <PUBCHEM_SHAPE_VOLUME>
116

> <PUBCHEM_COORDINATE_TYPE>
2
5
10

$$$$
