528135
  -OEChem-11232109153D

 29 29  0     0  0  0  0  0  0999 V2000
   -3.0897    0.1086   -0.3894 O   0  0  0  0  0  0  0  0  0  0  0  0
    0.2073   -1.1496    0.4567 N   0  0  0  0  0  0  0  0  0  0  0  0
   -1.1797    1.2750    0.2042 N   0  0  0  0  0  0  0  0  0  0  0  0
    3.2121    0.0959   -0.1045 C   0  0  0  0  0  0  0  0  0  0  0  0
    2.2346    0.0264    1.0851 C   0  0  0  0  0  0  0  0  0  0  0  0
    0.7803    0.0391    0.6815 C   0  0  0  0  0  0  0  0  0  0  0  0
    2.9740   -1.0339   -1.1097 C   0  0  0  0  0  0  0  0  0  0  0  0
    3.0765    1.4485   -0.8081 C   0  0  0  0  0  0  0  0  0  0  0  0
    0.1186    1.2298    0.5630 C   0  0  0  0  0  0  0  0  0  0  0  0
   -1.0911   -1.1044    0.0980 C   0  0  0  0  0  0  0  0  0  0  0  0
   -1.7724    0.0865   -0.0259 C   0  0  0  0  0  0  0  0  0  0  0  0
   -1.7626   -2.4094   -0.1597 C   0  0  0  0  0  0  0  0  0  0  0  0
   -3.7080    1.3876   -0.4911 C   0  0  0  0  0  0  0  0  0  0  0  0
    4.2320    0.0083    0.2897 H   0  0  0  0  0  0  0  0  0  0  0  0
    2.4324    0.8466    1.7873 H   0  0  0  0  0  0  0  0  0  0  0  0
    2.4267   -0.8968    1.6480 H   0  0  0  0  0  0  0  0  0  0  0  0
    2.0200   -0.9321   -1.6367 H   0  0  0  0  0  0  0  0  0  0  0  0
    2.9935   -2.0092   -0.6122 H   0  0  0  0  0  0  0  0  0  0  0  0
    3.7641   -1.0345   -1.8689 H   0  0  0  0  0  0  0  0  0  0  0  0
    3.8798    1.5673   -1.5443 H   0  0  0  0  0  0  0  0  0  0  0  0
    2.1315    1.5488   -1.3507 H   0  0  0  0  0  0  0  0  0  0  0  0
    3.1623    2.2762   -0.0963 H   0  0  0  0  0  0  0  0  0  0  0  0
    0.5843    2.1889    0.7523 H   0  0  0  0  0  0  0  0  0  0  0  0
   -1.0681   -3.2436   -0.0146 H   0  0  0  0  0  0  0  0  0  0  0  0
   -2.6031   -2.5496    0.5274 H   0  0  0  0  0  0  0  0  0  0  0  0
   -2.1292   -2.4543   -1.1901 H   0  0  0  0  0  0  0  0  0  0  0  0
   -3.7045    1.9028    0.4752 H   0  0  0  0  0  0  0  0  0  0  0  0
   -4.7497    1.2345   -0.7883 H   0  0  0  0  0  0  0  0  0  0  0  0
   -3.2232    1.9974   -1.2607 H   0  0  0  0  0  0  0  0  0  0  0  0
  1 11  1  0  0  0  0
  1 13  1  0  0  0  0
  2  6  1  0  0  0  0
  2 10  2  0  0  0  0
  3  9  1  0  0  0  0
  3 11  2  0  0  0  0
  4  5  1  0  0  0  0
  4  7  1  0  0  0  0
  4  8  1  0  0  0  0
  4 14  1  0  0  0  0
  5  6  1  0  0  0  0
  5 15  1  0  0  0  0
  5 16  1  0  0  0  0
  6  9  2  0  0  0  0
  7 17  1  0  0  0  0
  7 18  1  0  0  0  0
  7 19  1  0  0  0  0
  8 20  1  0  0  0  0
  8 21  1  0  0  0  0
  8 22  1  0  0  0  0
  9 23  1  0  0  0  0
 10 11  1  0  0  0  0
 10 12  1  0  0  0  0
 12 24  1  0  0  0  0
 12 25  1  0  0  0  0
 12 26  1  0  0  0  0
 13 27  1  0  0  0  0
 13 28  1  0  0  0  0
 13 29  1  0  0  0  0
M  END
> <PUBCHEM_COMPOUND_CID>
528135

> <PUBCHEM_CONFORMER_RMSD>
0.6

> <PUBCHEM_CONFORMER_DIVERSEORDER>
1
3
2
4

> <PUBCHEM_MMFF94_PARTIAL_CHARGES>
11
1 -0.36
10 0.17
11 0.39
12 0.14
13 0.28
2 -0.62
23 0.15
3 -0.62
5 0.14
6 0.17
9 0.16

> <PUBCHEM_EFFECTIVE_ROTOR_COUNT>
3

> <PUBCHEM_PHARMACOPHORE_FEATURES>
3
1 2 acceptor
3 4 7 8 hydrophobe
6 2 3 6 9 10 11 rings

> <PUBCHEM_HEAVY_ATOM_COUNT>
13

> <PUBCHEM_ATOM_DEF_STEREO_COUNT>
0

> <PUBCHEM_ATOM_UDEF_STEREO_COUNT>
0

> <PUBCHEM_BOND_DEF_STEREO_COUNT>
0

> <PUBCHEM_BOND_UDEF_STEREO_COUNT>
0

> <PUBCHEM_ISOTOPIC_ATOM_COUNT>
0

> <PUBCHEM_COMPONENT_COUNT>
1

> <PUBCHEM_CACTVS_TAUTO_COUNT>
2

> <PUBCHEM_CONFORMER_ID>
00080F0700000001

> <PUBCHEM_MMFF94_ENERGY>
33.769

> <PUBCHEM_FEATURE_SELFOVERLAP>
15.223

> <PUBCHEM_SHAPE_FINGERPRINT>
11031198 65 16443070465334076760
11206711 2 18266166426088946071
12138202 97 18413387657024529367
12716758 59 18413671305164903842
12897270 3 18270972344438093028
12932764 1 17240755190370737270
14289901 80 15068628158335463321
14911166 2 18341889675824130581
14993402 34 18334009476125094637
15775835 57 17675926504003626972
161256 15 17764586912267094251
16945 1 18412823577383634065
177051 138 11095885968853731220
18186145 218 18338517426316952637
18619055 16 18412829083874572622
19868273 293 18334853922197597599
20201158 50 17989210322078085742
20279233 1 17775280590866191226
20523700 14 18272654571289923308
20645476 183 18113901550153320474
20645477 70 16845574210252549164
20653085 51 18113346314071633712
20871999 31 18339644563206038135
22802520 49 18202289108288087538
23402539 116 18341599400744241156
23552423 10 18334857238334596818
23557571 272 18269837682724126688
23559900 14 18272367573618227144
2748010 2 18053086604511984657
31174 14 11098149884838691630
3248919 1 18060143141390141976
369184 2 8286203812263655634
4990 188 17988918930032334317
8030462 33 17418105308087965168
93112 12 18411425011884173718

> <PUBCHEM_SHAPE_MULTIPOLES>
251.7
5.77
1.9
0.96
0.06
0.65
-0.01
-1.48
-1.82
0.95
-0.25
-0.59
-0.02
0.17

> <PUBCHEM_SHAPE_SELFOVERLAP>
506.482

> <PUBCHEM_SHAPE_VOLUME>
149.5

> <PUBCHEM_COORDINATE_TYPE>
2
5
10

$$$$
