528106
  -OEChem-11232108563D

 31 31  0     1  0  0  0  0  0999 V2000
    0.5712   -0.6178    0.7400 N   0  0  0  0  0  0  0  0  0  0  0  0
    1.9644    1.4201   -0.5911 N   0  0  0  0  0  0  0  0  0  0  0  0
   -2.4606    0.4041   -0.1054 C   0  0  1  0  0  0  0  0  0  0  0  0
   -1.3909    0.7960    0.9397 C   0  0  0  0  0  0  0  0  0  0  0  0
   -2.6882   -1.1221   -0.1252 C   0  0  0  0  0  0  0  0  0  0  0  0
   -3.7563    1.1651    0.1990 C   0  0  0  0  0  0  0  0  0  0  0  0
    0.0306    0.5784    0.4802 C   0  0  0  0  0  0  0  0  0  0  0  0
   -3.7307   -1.5732   -1.1395 C   0  0  0  0  0  0  0  0  0  0  0  0
    0.6952    1.5823   -0.1674 C   0  0  0  0  0  0  0  0  0  0  0  0
    1.8405   -0.7801    0.3166 C   0  0  0  0  0  0  0  0  0  0  0  0
    2.5248    0.2209   -0.3373 C   0  0  0  0  0  0  0  0  0  0  0  0
    2.4717   -2.1021    0.5911 C   0  0  0  0  0  0  0  0  0  0  0  0
    3.9282    0.0284   -0.8006 C   0  0  0  0  0  0  0  0  0  0  0  0
   -2.1219    0.7191   -1.1014 H   0  0  0  0  0  0  0  0  0  0  0  0
   -1.5542    0.2404    1.8726 H   0  0  0  0  0  0  0  0  0  0  0  0
   -1.4963    1.8552    1.2107 H   0  0  0  0  0  0  0  0  0  0  0  0
   -1.7450   -1.6263   -0.3644 H   0  0  0  0  0  0  0  0  0  0  0  0
   -2.9894   -1.4705    0.8703 H   0  0  0  0  0  0  0  0  0  0  0  0
   -4.5049    1.0105   -0.5838 H   0  0  0  0  0  0  0  0  0  0  0  0
   -4.1869    0.8471    1.1544 H   0  0  0  0  0  0  0  0  0  0  0  0
   -3.5721    2.2438    0.2523 H   0  0  0  0  0  0  0  0  0  0  0  0
   -3.5010   -1.1883   -2.1379 H   0  0  0  0  0  0  0  0  0  0  0  0
   -4.7354   -1.2437   -0.8595 H   0  0  0  0  0  0  0  0  0  0  0  0
   -3.7493   -2.6667   -1.1945 H   0  0  0  0  0  0  0  0  0  0  0  0
    0.2503    2.5473   -0.3768 H   0  0  0  0  0  0  0  0  0  0  0  0
    1.7745   -2.7639    1.1164 H   0  0  0  0  0  0  0  0  0  0  0  0
    2.7555   -2.5979   -0.3424 H   0  0  0  0  0  0  0  0  0  0  0  0
    3.3561   -1.9858    1.2252 H   0  0  0  0  0  0  0  0  0  0  0  0
    3.9897   -0.7921   -1.5222 H   0  0  0  0  0  0  0  0  0  0  0  0
    4.3012    0.9313   -1.2964 H   0  0  0  0  0  0  0  0  0  0  0  0
    4.5910   -0.1800    0.0450 H   0  0  0  0  0  0  0  0  0  0  0  0
  1  7  1  0  0  0  0
  1 10  2  0  0  0  0
  2  9  1  0  0  0  0
  2 11  2  0  0  0  0
  3  4  1  0  0  0  0
  3  5  1  0  0  0  0
  3  6  1  0  0  0  0
  3 14  1  0  0  0  0
  4  7  1  0  0  0  0
  4 15  1  0  0  0  0
  4 16  1  0  0  0  0
  5  8  1  0  0  0  0
  5 17  1  0  0  0  0
  5 18  1  0  0  0  0
  6 19  1  0  0  0  0
  6 20  1  0  0  0  0
  6 21  1  0  0  0  0
  7  9  2  0  0  0  0
  8 22  1  0  0  0  0
  8 23  1  0  0  0  0
  8 24  1  0  0  0  0
  9 25  1  0  0  0  0
 10 11  1  0  0  0  0
 10 12  1  0  0  0  0
 11 13  1  0  0  0  0
 12 26  1  0  0  0  0
 12 27  1  0  0  0  0
 12 28  1  0  0  0  0
 13 29  1  0  0  0  0
 13 30  1  0  0  0  0
 13 31  1  0  0  0  0
M  END
> <PUBCHEM_COMPOUND_CID>
528106

> <PUBCHEM_CONFORMER_RMSD>
0.6

> <PUBCHEM_CONFORMER_DIVERSEORDER>
6
8
27
10
13
7
24
21
14
2
19
25
26
23
9
20
1
11
18
22
17
5
12
4
15
16
3

> <PUBCHEM_MMFF94_PARTIAL_CHARGES>
10
1 -0.62
10 0.17
11 0.17
12 0.14
13 0.14
2 -0.62
25 0.15
4 0.14
7 0.17
9 0.16

> <PUBCHEM_EFFECTIVE_ROTOR_COUNT>
3

> <PUBCHEM_PHARMACOPHORE_FEATURES>
5
1 1 acceptor
1 2 acceptor
1 6 hydrophobe
1 8 hydrophobe
6 1 2 7 9 10 11 rings

> <PUBCHEM_HEAVY_ATOM_COUNT>
13

> <PUBCHEM_ATOM_DEF_STEREO_COUNT>
0

> <PUBCHEM_ATOM_UDEF_STEREO_COUNT>
1

> <PUBCHEM_BOND_DEF_STEREO_COUNT>
0

> <PUBCHEM_BOND_UDEF_STEREO_COUNT>
0

> <PUBCHEM_ISOTOPIC_ATOM_COUNT>
0

> <PUBCHEM_COMPONENT_COUNT>
1

> <PUBCHEM_CACTVS_TAUTO_COUNT>
2

> <PUBCHEM_CONFORMER_ID>
00080EEA00000006

> <PUBCHEM_MMFF94_ENERGY>
26.6159

> <PUBCHEM_FEATURE_SELFOVERLAP>
25.376

> <PUBCHEM_SHAPE_FINGERPRINT>
11401426 45 18335140886701785672
11769659 78 18342731910189040243
11806522 49 18271241737487261608
12138202 97 16588313846592051906
12932764 1 18413110558788259329
13296908 3 17417808478386964905
13764800 53 13262949660376784213
14128692 85 18343021111811910033
14576447 43 18338792415808825711
15375462 189 18342464763539662643
15757776 16 18408038524581579694
15775835 57 18261399927112632709
16945 1 18187378631320173048
18186145 218 16443349732323155035
18619055 16 18337105653492155809
19422 9 18411136926921314671
20279233 1 15626220200142047693
20645476 183 18411703184057771375
20645477 70 18188210875533292467
21634736 98 18196648720790408631
23402539 116 17530962471434216964
23402655 69 18261110729890602253
23552423 10 18337672018087112697
23559900 14 17704071755622951064
23598291 2 18263921055846538475
25 1 17749113274575791264
2748010 2 17755888624704549656
2871803 45 18266170815735556583
57096353 35 18336551611169024996
58051976 100 18411136952986361949
6338986 31 17827060828145517738
93112 12 18410572894678410853
9939556 21 18410575063636830249

> <PUBCHEM_SHAPE_MULTIPOLES>
257.57
6.85
1.85
0.95
2.11
0.5
-0.04
1.46
-1.85
0.2
-0.04
0.06
0.14
-1.15

> <PUBCHEM_SHAPE_SELFOVERLAP>
512.866

> <PUBCHEM_SHAPE_VOLUME>
153.8

> <PUBCHEM_COORDINATE_TYPE>
2
5
10

$$$$
