528108
  -OEChem-11232108573D

 28 28  0     0  0  0  0  0  0999 V2000
   -0.2506    0.9655   -0.5093 N   0  0  0  0  0  0  0  0  0  0  0  0
   -1.2751   -1.5875    0.0373 N   0  0  0  0  0  0  0  0  0  0  0  0
    2.9168    0.2027    0.0215 C   0  0  0  0  0  0  0  0  0  0  0  0
    1.8984    0.0185   -1.1206 C   0  0  0  0  0  0  0  0  0  0  0  0
    0.4752   -0.1506   -0.6477 C   0  0  0  0  0  0  0  0  0  0  0  0
    2.5584    1.3854    0.9248 C   0  0  0  0  0  0  0  0  0  0  0  0
    2.9962   -1.0778    0.8565 C   0  0  0  0  0  0  0  0  0  0  0  0
   -0.0088   -1.4022   -0.3857 C   0  0  0  0  0  0  0  0  0  0  0  0
   -1.5168    0.7803   -0.0863 C   0  0  0  0  0  0  0  0  0  0  0  0
   -2.0200   -0.4737    0.1822 C   0  0  0  0  0  0  0  0  0  0  0  0
   -2.3514    2.0042    0.0779 C   0  0  0  0  0  0  0  0  0  0  0  0
   -3.4223   -0.6647    0.6495 C   0  0  0  0  0  0  0  0  0  0  0  0
    3.9002    0.3875   -0.4283 H   0  0  0  0  0  0  0  0  0  0  0  0
    2.1845   -0.8339   -1.7504 H   0  0  0  0  0  0  0  0  0  0  0  0
    1.9399    0.8977   -1.7774 H   0  0  0  0  0  0  0  0  0  0  0  0
    1.6469    1.2089    1.5046 H   0  0  0  0  0  0  0  0  0  0  0  0
    2.4241    2.2990    0.3363 H   0  0  0  0  0  0  0  0  0  0  0  0
    3.3666    1.5700    1.6413 H   0  0  0  0  0  0  0  0  0  0  0  0
    3.8333   -1.0115    1.5609 H   0  0  0  0  0  0  0  0  0  0  0  0
    2.0939   -1.2501    1.4512 H   0  0  0  0  0  0  0  0  0  0  0  0
    3.1722   -1.9539    0.2234 H   0  0  0  0  0  0  0  0  0  0  0  0
    0.5799   -2.3031   -0.5056 H   0  0  0  0  0  0  0  0  0  0  0  0
   -1.7797    2.9019   -0.1814 H   0  0  0  0  0  0  0  0  0  0  0  0
   -3.2253    1.9692   -0.5800 H   0  0  0  0  0  0  0  0  0  0  0  0
   -2.6809    2.1128    1.1159 H   0  0  0  0  0  0  0  0  0  0  0  0
   -4.1336   -0.2932   -0.0949 H   0  0  0  0  0  0  0  0  0  0  0  0
   -3.6377   -1.7269    0.8088 H   0  0  0  0  0  0  0  0  0  0  0  0
   -3.5881   -0.1493    1.6006 H   0  0  0  0  0  0  0  0  0  0  0  0
  1  5  1  0  0  0  0
  1  9  2  0  0  0  0
  2  8  1  0  0  0  0
  2 10  2  0  0  0  0
  3  4  1  0  0  0  0
  3  6  1  0  0  0  0
  3  7  1  0  0  0  0
  3 13  1  0  0  0  0
  4  5  1  0  0  0  0
  4 14  1  0  0  0  0
  4 15  1  0  0  0  0
  5  8  2  0  0  0  0
  6 16  1  0  0  0  0
  6 17  1  0  0  0  0
  6 18  1  0  0  0  0
  7 19  1  0  0  0  0
  7 20  1  0  0  0  0
  7 21  1  0  0  0  0
  8 22  1  0  0  0  0
  9 10  1  0  0  0  0
  9 11  1  0  0  0  0
 10 12  1  0  0  0  0
 11 23  1  0  0  0  0
 11 24  1  0  0  0  0
 11 25  1  0  0  0  0
 12 26  1  0  0  0  0
 12 27  1  0  0  0  0
 12 28  1  0  0  0  0
M  END
> <PUBCHEM_COMPOUND_CID>
528108

> <PUBCHEM_CONFORMER_RMSD>
0.6

> <PUBCHEM_CONFORMER_DIVERSEORDER>
1
3
2
4

> <PUBCHEM_MMFF94_PARTIAL_CHARGES>
10
1 -0.62
10 0.17
11 0.14
12 0.14
2 -0.62
22 0.15
4 0.14
5 0.17
8 0.16
9 0.17

> <PUBCHEM_EFFECTIVE_ROTOR_COUNT>
2

> <PUBCHEM_PHARMACOPHORE_FEATURES>
4
1 1 acceptor
1 2 acceptor
3 3 6 7 hydrophobe
6 1 2 5 8 9 10 rings

> <PUBCHEM_HEAVY_ATOM_COUNT>
12

> <PUBCHEM_ATOM_DEF_STEREO_COUNT>
0

> <PUBCHEM_ATOM_UDEF_STEREO_COUNT>
0

> <PUBCHEM_BOND_DEF_STEREO_COUNT>
0

> <PUBCHEM_BOND_UDEF_STEREO_COUNT>
0

> <PUBCHEM_ISOTOPIC_ATOM_COUNT>
0

> <PUBCHEM_COMPONENT_COUNT>
1

> <PUBCHEM_CACTVS_TAUTO_COUNT>
2

> <PUBCHEM_CONFORMER_ID>
00080EEC00000001

> <PUBCHEM_MMFF94_ENERGY>
26.3053

> <PUBCHEM_FEATURE_SELFOVERLAP>
20.301

> <PUBCHEM_SHAPE_FINGERPRINT>
10857977 72 18409736191898776549
11031198 65 15410626912121791318
12251169 10 18411412938731065568
12696612 119 18341047540312287232
12932764 1 18272090517324269398
13380535 76 18192990418509334845
13581323 91 18408603669083889178
14325111 11 18410012104755825324
15775835 57 18335706001070694104
16945 1 18410581720614534695
17804303 29 18265053544444320214
17834069 15 18263078821259783906
19422 9 17822016372060729202
20361792 2 15864062166122097990
20510252 161 18343027683180600801
20528008 55 18342734169473576809
20559304 39 18114472248480613780
20645464 45 18131635573250012446
20653085 51 12679186054272294082
20871998 184 18200037372957239591
21028194 46 18272373048773185972
22445834 79 18041552564412500194
230 275 17346315956184984048
23402539 116 18341601629953535399
23463225 33 18187086117902887262
23552423 10 17826803834202371077
2748010 2 18193854638885789999
369184 2 18412820313224358558
5084963 1 17894912905991490318
53812653 166 18270123400838609201
6333449 129 18340769256532999501
7364860 26 17982172210467424271

> <PUBCHEM_SHAPE_MULTIPOLES>
236.99
5.18
1.73
0.96
0.37
0.34
-0.01
0.19
1.54
-0.58
0.19
0.46
0
0.21

> <PUBCHEM_SHAPE_SELFOVERLAP>
476.821

> <PUBCHEM_SHAPE_VOLUME>
140

> <PUBCHEM_COORDINATE_TYPE>
2
5
10

$$$$
