5282726
  -OEChem-11232109033D

 30 29  0     0  0  0  0  0  0999 V2000
   -4.7052   -1.6959   -0.3516 O   0  0  0  0  0  0  0  0  0  0  0  0
   -4.9639    0.3434    0.6136 O   0  0  0  0  0  0  0  0  0  0  0  0
    2.5383   -0.1740    0.0483 C   0  0  0  0  0  0  0  0  0  0  0  0
    4.0151    0.1555   -0.1962 C   0  0  0  0  0  0  0  0  0  0  0  0
    1.5846    0.8153   -0.6312 C   0  0  0  0  0  0  0  0  0  0  0  0
    4.9740   -0.8331    0.4722 C   0  0  0  0  0  0  0  0  0  0  0  0
    0.1371    0.4552   -0.4492 C   0  0  0  0  0  0  0  0  0  0  0  0
    6.4411   -0.5329    0.2071 C   0  0  0  0  0  0  0  0  0  0  0  0
   -2.2350    1.0100    0.3098 C   0  0  0  0  0  0  0  0  0  0  0  0
   -0.7714    1.2821    0.0907 C   0  0  0  0  0  0  0  0  0  0  0  0
   -2.7676   -0.3346   -0.1920 C   0  0  0  0  0  0  0  0  0  0  0  0
   -4.2473   -0.4909    0.0785 C   0  0  0  0  0  0  0  0  0  0  0  0
    2.3441   -0.1829    1.1284 H   0  0  0  0  0  0  0  0  0  0  0  0
    2.3337   -1.1886   -0.3170 H   0  0  0  0  0  0  0  0  0  0  0  0
    4.2256    1.1667    0.1732 H   0  0  0  0  0  0  0  0  0  0  0  0
    4.2063    0.1663   -1.2763 H   0  0  0  0  0  0  0  0  0  0  0  0
    1.7845    1.8258   -0.2541 H   0  0  0  0  0  0  0  0  0  0  0  0
    1.7944    0.8352   -1.7078 H   0  0  0  0  0  0  0  0  0  0  0  0
    4.7530   -1.8475    0.1192 H   0  0  0  0  0  0  0  0  0  0  0  0
    4.8013   -0.8294    1.5551 H   0  0  0  0  0  0  0  0  0  0  0  0
   -0.1582   -0.5300   -0.7977 H   0  0  0  0  0  0  0  0  0  0  0  0
    6.7092    0.4606    0.5800 H   0  0  0  0  0  0  0  0  0  0  0  0
    6.6588   -0.5677   -0.8651 H   0  0  0  0  0  0  0  0  0  0  0  0
    7.0770   -1.2691    0.7086 H   0  0  0  0  0  0  0  0  0  0  0  0
   -2.4357    1.0981    1.3853 H   0  0  0  0  0  0  0  0  0  0  0  0
   -2.7994    1.8182   -0.1732 H   0  0  0  0  0  0  0  0  0  0  0  0
   -0.4392    2.2639    0.4238 H   0  0  0  0  0  0  0  0  0  0  0  0
   -2.6142   -0.4206   -1.2738 H   0  0  0  0  0  0  0  0  0  0  0  0
   -2.2483   -1.1565    0.3139 H   0  0  0  0  0  0  0  0  0  0  0  0
   -5.6648   -1.8047   -0.1794 H   0  0  0  0  0  0  0  0  0  0  0  0
  1 12  1  0  0  0  0
  1 30  1  0  0  0  0
  2 12  2  0  0  0  0
  3  4  1  0  0  0  0
  3  5  1  0  0  0  0
  3 13  1  0  0  0  0
  3 14  1  0  0  0  0
  4  6  1  0  0  0  0
  4 15  1  0  0  0  0
  4 16  1  0  0  0  0
  5  7  1  0  0  0  0
  5 17  1  0  0  0  0
  5 18  1  0  0  0  0
  6  8  1  0  0  0  0
  6 19  1  0  0  0  0
  6 20  1  0  0  0  0
  7 10  2  0  0  0  0
  7 21  1  0  0  0  0
  8 22  1  0  0  0  0
  8 23  1  0  0  0  0
  8 24  1  0  0  0  0
  9 10  1  0  0  0  0
  9 11  1  0  0  0  0
  9 25  1  0  0  0  0
  9 26  1  0  0  0  0
 10 27  1  0  0  0  0
 11 12  1  0  0  0  0
 11 28  1  0  0  0  0
 11 29  1  0  0  0  0
M  END
> <PUBCHEM_COMPOUND_CID>
5282726

> <PUBCHEM_CONFORMER_RMSD>
0.8

> <PUBCHEM_CONFORMER_DIVERSEORDER>
2
16
6
105
21
77
53
73
8
98
114
28
3
102
4
61
62
7
116
33
103
14
55
32
113
20
31
86
70
96
59
90
97
71
22
100
10
36
94
76
104
111
60
24
66
89
109
40
13
48
39
91
92
19
30
67
51
26
106
57
44
25
68
45
15
117
1
11
42
101
65
84
99
88
17
80
93
69
47
5
52
108
87
82
41
95
74
18
79
64
72
38
63
112
110
50
35
23
46
75
12
83
9
107
115
78
49
27
43
56
81
34
58
85
54
37
29

> <PUBCHEM_MMFF94_PARTIAL_CHARGES>
11
1 -0.65
10 -0.29
11 0.06
12 0.66
2 -0.57
21 0.15
27 0.15
30 0.5
5 0.14
7 -0.29
9 0.14

> <PUBCHEM_EFFECTIVE_ROTOR_COUNT>
7

> <PUBCHEM_PHARMACOPHORE_FEATURES>
5
1 1 acceptor
1 2 acceptor
1 8 hydrophobe
3 1 2 12 anion
5 3 4 5 6 7 hydrophobe

> <PUBCHEM_HEAVY_ATOM_COUNT>
12

> <PUBCHEM_ATOM_DEF_STEREO_COUNT>
0

> <PUBCHEM_ATOM_UDEF_STEREO_COUNT>
0

> <PUBCHEM_BOND_DEF_STEREO_COUNT>
1

> <PUBCHEM_BOND_UDEF_STEREO_COUNT>
0

> <PUBCHEM_ISOTOPIC_ATOM_COUNT>
0

> <PUBCHEM_COMPONENT_COUNT>
1

> <PUBCHEM_CACTVS_TAUTO_COUNT>
1

> <PUBCHEM_CONFORMER_ID>
00509BA600000002

> <PUBCHEM_MMFF94_ENERGY>
0.8253

> <PUBCHEM_FEATURE_SELFOVERLAP>
25.43

> <PUBCHEM_SHAPE_FINGERPRINT>
100836 57 10952048974710489850
10354089 29 13830130598860870090
114248 4 13912325685263325264
12670543 26 12396290436067251112
12714333 28 11530484432902120214
12815109 37 18335139782319989281
13288520 33 18408886217691693084
13690532 89 18113618988807937500
1420 363 18343866606784919686
14251732 16 18270959150546629184
14252887 29 16916798361618094684
15048467 5 10159696893842811418
15242439 84 13190345664757418924
15501527 16 9295282859212700534
17834072 33 18261115188419927468
17834072 8 12251905889001453366
17834076 25 8790882982687308376
187816 3 14634870842394101068
200 152 17603585210000847476
20526848 3 9943532933265228195
20645477 56 13686294660726273864
20645477 70 13407062666615035432
20767249 213 11672059744421958585
20828058 44 18131914866536284997
212847 35 9655578492146242406
22896161 15 18410011070480921252
23402539 116 18409444782720895133
23402655 69 8214144053746989144
23590187 198 18408887325777379155
26918003 58 18060700589432584153
351380 3 18260544524383580002
42 15 18342740719198580452
449060 50 13183025120207574053
49783359 22 18272649047666808694
559249 180 18410008841372120543
57483677 66 18333729087949131106
7062679 6 10447929494745644562

> <PUBCHEM_SHAPE_MULTIPOLES>
235.22
14.2
1.22
0.72
8.48
0.11
0.01
6.07
-1.8
-0.9
0.05
0
-0.03
-0.62

> <PUBCHEM_SHAPE_SELFOVERLAP>
429.733

> <PUBCHEM_SHAPE_VOLUME>
149.2

> <PUBCHEM_COORDINATE_TYPE>
2
5
10

$$$$
