5282650
  -OEChem-11232109193D

 21 20  0     0  0  0  0  0  0999 V2000
    2.9743    0.6711   -0.3024 O   0  0  0  0  0  0  0  0  0  0  0  0
    2.3080   -1.4931   -0.1290 O   0  0  0  0  0  0  0  0  0  0  0  0
   -1.7233   -0.2492    0.6957 C   0  0  0  0  0  0  0  0  0  0  0  0
   -2.5738   -0.2223   -0.5736 C   0  0  0  0  0  0  0  0  0  0  0  0
   -0.2890   -0.5773    0.3838 C   0  0  0  0  0  0  0  0  0  0  0  0
   -4.0301    0.0839   -0.2605 C   0  0  0  0  0  0  0  0  0  0  0  0
    0.7108    0.2965    0.1623 C   0  0  0  0  0  0  0  0  0  0  0  0
    0.5717    1.7896    0.1237 C   0  0  0  0  0  0  0  0  0  0  0  0
    2.0515   -0.2993   -0.1001 C   0  0  0  0  0  0  0  0  0  0  0  0
   -1.8025    0.7048    1.2285 H   0  0  0  0  0  0  0  0  0  0  0  0
   -2.1076   -1.0091    1.3876 H   0  0  0  0  0  0  0  0  0  0  0  0
   -2.1915    0.5350   -1.2687 H   0  0  0  0  0  0  0  0  0  0  0  0
   -2.5138   -1.1895   -1.0874 H   0  0  0  0  0  0  0  0  0  0  0  0
   -0.0856   -1.6467    0.3581 H   0  0  0  0  0  0  0  0  0  0  0  0
   -4.6211    0.0974   -1.1816 H   0  0  0  0  0  0  0  0  0  0  0  0
   -4.4559   -0.6736    0.4053 H   0  0  0  0  0  0  0  0  0  0  0  0
   -4.1303    1.0615    0.2218 H   0  0  0  0  0  0  0  0  0  0  0  0
    1.1494    2.2472    0.9336 H   0  0  0  0  0  0  0  0  0  0  0  0
    0.9337    2.1849   -0.8315 H   0  0  0  0  0  0  0  0  0  0  0  0
   -0.4635    2.1249    0.2281 H   0  0  0  0  0  0  0  0  0  0  0  0
    3.8657    0.2998   -0.4753 H   0  0  0  0  0  0  0  0  0  0  0  0
  1  9  1  0  0  0  0
  1 21  1  0  0  0  0
  2  9  2  0  0  0  0
  3  4  1  0  0  0  0
  3  5  1  0  0  0  0
  3 10  1  0  0  0  0
  3 11  1  0  0  0  0
  4  6  1  0  0  0  0
  4 12  1  0  0  0  0
  4 13  1  0  0  0  0
  5  7  2  0  0  0  0
  5 14  1  0  0  0  0
  6 15  1  0  0  0  0
  6 16  1  0  0  0  0
  6 17  1  0  0  0  0
  7  8  1  0  0  0  0
  7  9  1  0  0  0  0
  8 18  1  0  0  0  0
  8 19  1  0  0  0  0
  8 20  1  0  0  0  0
M  END
> <PUBCHEM_COMPOUND_CID>
5282650

> <PUBCHEM_CONFORMER_RMSD>
0.6

> <PUBCHEM_CONFORMER_DIVERSEORDER>
1
9
11
10
7
3
12
2
6
5
8
4

> <PUBCHEM_MMFF94_PARTIAL_CHARGES>
9
1 -0.65
14 0.15
2 -0.57
21 0.5
3 0.14
5 -0.29
7 -0.12
8 0.14
9 0.71

> <PUBCHEM_EFFECTIVE_ROTOR_COUNT>
3

> <PUBCHEM_PHARMACOPHORE_FEATURES>
5
1 1 acceptor
1 2 acceptor
1 6 hydrophobe
1 8 hydrophobe
3 1 2 9 anion

> <PUBCHEM_HEAVY_ATOM_COUNT>
9

> <PUBCHEM_ATOM_DEF_STEREO_COUNT>
0

> <PUBCHEM_ATOM_UDEF_STEREO_COUNT>
0

> <PUBCHEM_BOND_DEF_STEREO_COUNT>
1

> <PUBCHEM_BOND_UDEF_STEREO_COUNT>
0

> <PUBCHEM_ISOTOPIC_ATOM_COUNT>
0

> <PUBCHEM_COMPONENT_COUNT>
1

> <PUBCHEM_CACTVS_TAUTO_COUNT>
1

> <PUBCHEM_CONFORMER_ID>
00509B5A00000001

> <PUBCHEM_MMFF94_ENERGY>
7.8852

> <PUBCHEM_FEATURE_SELFOVERLAP>
25.43

> <PUBCHEM_SHAPE_FINGERPRINT>
11062470 55 17775846821974056065
12932764 1 17561359595596651819
14325111 11 18335420179718980955
14390081 3 17167857565333575799
14993402 34 17917716824391001748
15477762 27 18342172306289488279
20201158 50 18335420179259908626
20645477 70 18339359673936438671
20651381 32 18333732403278683731
21293036 1 18333732433443584143
23402655 69 18410848850822554493
29004967 10 18336555987988606266
9939556 21 18129937992259254087

> <PUBCHEM_SHAPE_MULTIPOLES>
173.48
5.44
1.28
0.73
3.66
0.34
-0.04
-0.38
1.05
-0.83
-0.02
0.22
-0.02
0.04

> <PUBCHEM_SHAPE_SELFOVERLAP>
323.025

> <PUBCHEM_SHAPE_VOLUME>
109

> <PUBCHEM_COORDINATE_TYPE>
2
5
10

$$$$
