5283337
  -OEChem-11232109473D

 26 25  0     0  0  0  0  0  0999 V2000
    4.7516   -0.1417    0.6328 O   0  0  0  0  0  0  0  0  0  0  0  0
   -2.7477   -0.1953    0.2521 C   0  0  0  0  0  0  0  0  0  0  0  0
   -1.8400    0.9867   -0.1042 C   0  0  0  0  0  0  0  0  0  0  0  0
   -4.1967   -0.0107   -0.2055 C   0  0  0  0  0  0  0  0  0  0  0  0
   -0.4254    0.8101    0.3666 C   0  0  0  0  0  0  0  0  0  0  0  0
    2.0484    0.5748    0.0137 C   0  0  0  0  0  0  0  0  0  0  0  0
   -5.0564   -1.2040    0.1823 C   0  0  0  0  0  0  0  0  0  0  0  0
    0.6315    0.7458   -0.4568 C   0  0  0  0  0  0  0  0  0  0  0  0
    2.6957   -0.6899   -0.5461 C   0  0  0  0  0  0  0  0  0  0  0  0
    4.1391   -0.8757   -0.1349 C   0  0  0  0  0  0  0  0  0  0  0  0
   -2.3416   -1.1102   -0.1986 H   0  0  0  0  0  0  0  0  0  0  0  0
   -2.7312   -0.3482    1.3391 H   0  0  0  0  0  0  0  0  0  0  0  0
   -2.2393    1.9004    0.3529 H   0  0  0  0  0  0  0  0  0  0  0  0
   -1.8671    1.1451   -1.1895 H   0  0  0  0  0  0  0  0  0  0  0  0
   -4.2279    0.1203   -1.2933 H   0  0  0  0  0  0  0  0  0  0  0  0
   -4.6144    0.8975    0.2441 H   0  0  0  0  0  0  0  0  0  0  0  0
   -0.2731    0.7354    1.4404 H   0  0  0  0  0  0  0  0  0  0  0  0
    2.6253    1.4527   -0.3025 H   0  0  0  0  0  0  0  0  0  0  0  0
    2.0963    0.5556    1.1097 H   0  0  0  0  0  0  0  0  0  0  0  0
   -5.0698   -1.3417    1.2682 H   0  0  0  0  0  0  0  0  0  0  0  0
   -6.0871   -1.0533   -0.1537 H   0  0  0  0  0  0  0  0  0  0  0  0
   -4.6806   -2.1241   -0.2766 H   0  0  0  0  0  0  0  0  0  0  0  0
    0.4792    0.8285   -1.5301 H   0  0  0  0  0  0  0  0  0  0  0  0
    2.1460   -1.5787   -0.2158 H   0  0  0  0  0  0  0  0  0  0  0  0
    2.6749   -0.6725   -1.6421 H   0  0  0  0  0  0  0  0  0  0  0  0
    4.6344   -1.7592   -0.5737 H   0  0  0  0  0  0  0  0  0  0  0  0
  1 10  2  0  0  0  0
  2  3  1  0  0  0  0
  2  4  1  0  0  0  0
  2 11  1  0  0  0  0
  2 12  1  0  0  0  0
  3  5  1  0  0  0  0
  3 13  1  0  0  0  0
  3 14  1  0  0  0  0
  4  7  1  0  0  0  0
  4 15  1  0  0  0  0
  4 16  1  0  0  0  0
  5  8  2  0  0  0  0
  5 17  1  0  0  0  0
  6  8  1  0  0  0  0
  6  9  1  0  0  0  0
  6 18  1  0  0  0  0
  6 19  1  0  0  0  0
  7 20  1  0  0  0  0
  7 21  1  0  0  0  0
  7 22  1  0  0  0  0
  8 23  1  0  0  0  0
  9 10  1  0  0  0  0
  9 24  1  0  0  0  0
  9 25  1  0  0  0  0
 10 26  1  0  0  0  0
M  END
> <PUBCHEM_COMPOUND_CID>
5283337

> <PUBCHEM_CONFORMER_RMSD>
0.6

> <PUBCHEM_CONFORMER_DIVERSEORDER>
1
116
67
30
109
202
200
108
103
208
74
180
21
58
65
131
159
204
3
86
69
213
207
24
13
8
49
12
42
66
91
111
68
87
102
4
150
197
176
95
11
56
192
222
152
70
126
118
99
184
190
39
97
136
98
166
220
88
114
20
52
26
183
25
89
144
50
191
113
216
228
43
101
48
154
127
223
128
162
225
168
92
6
23
119
229
164
179
121
85
123
224
105
205
173
63
83
134
81
201
172
178
143
156
94
215
47
107
226
163
72
182
78
33
174
32
141
15
77
19
59
45
38
175
104
120
165
171
18
209
29
198
196
148
41
185
217
195
161
212
44
51
64
210
147
90
169
80
7
54
170
206
158
36
199
96
194
14
60
76
193
34
230
187
160
22
177
27
219
211
2
122
73
186
227
139
46
53
138
112
189
157
145
93
221
110
135
140
57
79
75
203
167
130
117
129
55
137
17
40
28
124
149
35
188
153
214
133
181
115
9
155
151
61
5
106
132
100
31
10
84
146
125
82
218
62
71
37
16
142

> <PUBCHEM_MMFF94_PARTIAL_CHARGES>
10
1 -0.57
10 0.45
17 0.15
23 0.15
26 0.06
3 0.14
5 -0.29
6 0.14
8 -0.29
9 0.06

> <PUBCHEM_EFFECTIVE_ROTOR_COUNT>
6

> <PUBCHEM_PHARMACOPHORE_FEATURES>
3
1 1 acceptor
1 7 hydrophobe
4 2 3 4 5 hydrophobe

> <PUBCHEM_HEAVY_ATOM_COUNT>
10

> <PUBCHEM_ATOM_DEF_STEREO_COUNT>
0

> <PUBCHEM_ATOM_UDEF_STEREO_COUNT>
0

> <PUBCHEM_BOND_DEF_STEREO_COUNT>
1

> <PUBCHEM_BOND_UDEF_STEREO_COUNT>
0

> <PUBCHEM_ISOTOPIC_ATOM_COUNT>
0

> <PUBCHEM_COMPONENT_COUNT>
1

> <PUBCHEM_CACTVS_TAUTO_COUNT>
2

> <PUBCHEM_CONFORMER_ID>
00509E0900000001

> <PUBCHEM_MMFF94_ENERGY>
-0.9756

> <PUBCHEM_FEATURE_SELFOVERLAP>
15.223

> <PUBCHEM_SHAPE_FINGERPRINT>
100836 57 10303813202467294666
114248 4 16515407382343259687
11987891 27 17385721370539969890
12815109 37 18411135831308852871
13690532 89 18261112980347632243
14123238 8 18202001036157058214
14252887 29 17489597735784821862
15477762 27 18334580135702885916
177051 138 18342179951120116100
17834072 33 18336549412320056972
17834072 8 18114172026683676357
17834076 25 11095884865178706027
18342897 14 12751237008248564923
20432913 95 18202571674276324571
20605781 2 9151176446087540991
20645477 70 18260552233691471270
20671657 53 18113904870395149237
20724930 31 18342176674028375224
20767249 13 18259983773300160514
20767249 213 11312058743100033139
21119208 17 14706929544443673571
21501925 9 18413671305439249340
22485316 2 18410571756095099063
23402539 116 17168139014408679149
23402655 69 12179836217399431459
42 15 18201722851309958073
449060 50 12751240302615113881
449060 62 9151183042903898749

> <PUBCHEM_SHAPE_MULTIPOLES>
199.93
10.82
1.15
0.72
1.49
0.07
-0.01
5.03
0.84
0.35
-0.02
-0.16
0
0.19

> <PUBCHEM_SHAPE_SELFOVERLAP>
358.954

> <PUBCHEM_SHAPE_VOLUME>
128.4

> <PUBCHEM_COORDINATE_TYPE>
2
5
10

$$$$
