5283329
  -OEChem-11232108503D

 21 20  0     0  0  0  0  0  0999 V2000
    4.7280   -0.4013   -0.1390 O   0  0  0  0  0  0  0  0  0  0  0  0
   -3.4708   -0.4027    0.4560 C   0  0  0  0  0  0  0  0  0  0  0  0
   -2.5258    0.4788   -0.3643 C   0  0  0  0  0  0  0  0  0  0  0  0
   -4.8617   -0.5192   -0.1519 C   0  0  0  0  0  0  0  0  0  0  0  0
   -1.1598    0.6018    0.2488 C   0  0  0  0  0  0  0  0  0  0  0  0
   -0.0394    0.1551   -0.3381 C   0  0  0  0  0  0  0  0  0  0  0  0
    1.2701    0.2743    0.2632 C   0  0  0  0  0  0  0  0  0  0  0  0
    2.3820   -0.1752   -0.3314 C   0  0  0  0  0  0  0  0  0  0  0  0
    3.6774   -0.0115    0.3566 C   0  0  0  0  0  0  0  0  0  0  0  0
   -3.0430   -1.4082    0.5536 H   0  0  0  0  0  0  0  0  0  0  0  0
   -3.5630    0.0012    1.4718 H   0  0  0  0  0  0  0  0  0  0  0  0
   -2.9521    1.4855   -0.4534 H   0  0  0  0  0  0  0  0  0  0  0  0
   -2.4552    0.0800   -1.3840 H   0  0  0  0  0  0  0  0  0  0  0  0
   -4.8141   -0.9583   -1.1534 H   0  0  0  0  0  0  0  0  0  0  0  0
   -5.4965   -1.1573    0.4708 H   0  0  0  0  0  0  0  0  0  0  0  0
   -5.3369    0.4637   -0.2295 H   0  0  0  0  0  0  0  0  0  0  0  0
   -1.1081    1.0857    1.2217 H   0  0  0  0  0  0  0  0  0  0  0  0
   -0.0993   -0.3262   -1.3110 H   0  0  0  0  0  0  0  0  0  0  0  0
    1.3240    0.7526    1.2383 H   0  0  0  0  0  0  0  0  0  0  0  0
    2.3798   -0.6582   -1.3018 H   0  0  0  0  0  0  0  0  0  0  0  0
    3.6491    0.4826    1.3421 H   0  0  0  0  0  0  0  0  0  0  0  0
  1  9  2  0  0  0  0
  2  3  1  0  0  0  0
  2  4  1  0  0  0  0
  2 10  1  0  0  0  0
  2 11  1  0  0  0  0
  3  5  1  0  0  0  0
  3 12  1  0  0  0  0
  3 13  1  0  0  0  0
  4 14  1  0  0  0  0
  4 15  1  0  0  0  0
  4 16  1  0  0  0  0
  5  6  2  0  0  0  0
  5 17  1  0  0  0  0
  6  7  1  0  0  0  0
  6 18  1  0  0  0  0
  7  8  2  0  0  0  0
  7 19  1  0  0  0  0
  8  9  1  0  0  0  0
  8 20  1  0  0  0  0
  9 21  1  0  0  0  0
M  END
> <PUBCHEM_COMPOUND_CID>
5283329

> <PUBCHEM_CONFORMER_RMSD>
0.6

> <PUBCHEM_CONFORMER_DIVERSEORDER>
3
9
17
8
14
21
4
6
20
7
1
10
13
16
11
12
22
18
15
19
5
2

> <PUBCHEM_MMFF94_PARTIAL_CHARGES>
12
1 -0.57
17 0.15
18 0.15
19 0.15
20 0.15
21 0.06
3 0.14
5 -0.29
6 -0.15
7 -0.15
8 -0.14
9 0.5

> <PUBCHEM_EFFECTIVE_ROTOR_COUNT>
4

> <PUBCHEM_PHARMACOPHORE_FEATURES>
2
1 1 acceptor
1 4 hydrophobe

> <PUBCHEM_HEAVY_ATOM_COUNT>
9

> <PUBCHEM_ATOM_DEF_STEREO_COUNT>
0

> <PUBCHEM_ATOM_UDEF_STEREO_COUNT>
0

> <PUBCHEM_BOND_DEF_STEREO_COUNT>
2

> <PUBCHEM_BOND_UDEF_STEREO_COUNT>
0

> <PUBCHEM_ISOTOPIC_ATOM_COUNT>
0

> <PUBCHEM_COMPONENT_COUNT>
1

> <PUBCHEM_CACTVS_TAUTO_COUNT>
1

> <PUBCHEM_CONFORMER_ID>
00509E0100000003

> <PUBCHEM_MMFF94_ENERGY>
1.8132

> <PUBCHEM_FEATURE_SELFOVERLAP>
10.148

> <PUBCHEM_SHAPE_FINGERPRINT>
11062470 55 8070027770100934488
114248 4 13984664763078817113
12932764 1 15913033271255900592
14123238 8 17989487437351559524
14252887 29 17203338796792806766
17834076 25 11025796496202361327
18342897 14 13614524060523848339
20211469 26 18335421274882803017
20645477 70 12324507724052400104
20719005 15 18201719552579889446
20767249 213 11600003254449251059
20828058 44 16988842808761252847
21119208 17 15936408953108486883
21293036 1 14851604388380688833
22485316 2 18335135393106213811
23402539 116 17313096450029739175
23402655 69 13840252694184541519
42788 4 18335420170728074269
449060 50 13110965331520303673

> <PUBCHEM_SHAPE_MULTIPOLES>
179.35
9.79
0.75
0.7
0.21
0.02
0.01
-2.44
-0.02
-0.25
0
-0.07
0
0.1

> <PUBCHEM_SHAPE_SELFOVERLAP>
328.01

> <PUBCHEM_SHAPE_VOLUME>
113.6

> <PUBCHEM_COORDINATE_TYPE>
2
5
10

$$$$
