5283356
  -OEChem-11232108523D

 32 31  0     0  0  0  0  0  0999 V2000
   -6.4323   -0.8821    0.4242 O   0  0  0  0  0  0  0  0  0  0  0  0
    1.7379   -0.1775   -0.2482 C   0  0  0  0  0  0  0  0  0  0  0  0
    3.0891    0.3733    0.2180 C   0  0  0  0  0  0  0  0  0  0  0  0
    0.5523    0.7087    0.1388 C   0  0  0  0  0  0  0  0  0  0  0  0
    4.3171   -0.4603   -0.1604 C   0  0  0  0  0  0  0  0  0  0  0  0
   -0.7689    0.1158   -0.3578 C   0  0  0  0  0  0  0  0  0  0  0  0
    5.6286    0.1057    0.3844 C   0  0  0  0  0  0  0  0  0  0  0  0
   -1.9580    0.9830    0.0610 C   0  0  0  0  0  0  0  0  0  0  0  0
    6.8235   -0.7051   -0.0938 C   0  0  0  0  0  0  0  0  0  0  0  0
   -3.2514    0.4192   -0.4531 C   0  0  0  0  0  0  0  0  0  0  0  0
   -4.2518    0.0280    0.3456 C   0  0  0  0  0  0  0  0  0  0  0  0
   -5.4861   -0.5085   -0.2586 C   0  0  0  0  0  0  0  0  0  0  0  0
    1.5974   -1.1794    0.1759 H   0  0  0  0  0  0  0  0  0  0  0  0
    1.7609   -0.2962   -1.3385 H   0  0  0  0  0  0  0  0  0  0  0  0
    3.2154    1.3850   -0.1882 H   0  0  0  0  0  0  0  0  0  0  0  0
    3.0621    0.4810    1.3099 H   0  0  0  0  0  0  0  0  0  0  0  0
    0.6891    1.7109   -0.2850 H   0  0  0  0  0  0  0  0  0  0  0  0
    0.5211    0.8195    1.2294 H   0  0  0  0  0  0  0  0  0  0  0  0
    4.1837   -1.4837    0.2116 H   0  0  0  0  0  0  0  0  0  0  0  0
    4.3734   -0.5268   -1.2539 H   0  0  0  0  0  0  0  0  0  0  0  0
   -0.8913   -0.8974    0.0457 H   0  0  0  0  0  0  0  0  0  0  0  0
   -0.7397    0.0241   -1.4510 H   0  0  0  0  0  0  0  0  0  0  0  0
    5.6048    0.1089    1.4802 H   0  0  0  0  0  0  0  0  0  0  0  0
    5.7477    1.1455    0.0587 H   0  0  0  0  0  0  0  0  0  0  0  0
   -1.8382    1.9959   -0.3417 H   0  0  0  0  0  0  0  0  0  0  0  0
   -1.9803    1.0756    1.1537 H   0  0  0  0  0  0  0  0  0  0  0  0
    6.8928   -0.6955   -1.1862 H   0  0  0  0  0  0  0  0  0  0  0  0
    7.7510   -0.2861    0.3089 H   0  0  0  0  0  0  0  0  0  0  0  0
    6.7488   -1.7459    0.2372 H   0  0  0  0  0  0  0  0  0  0  0  0
   -3.3535    0.3482   -1.5335 H   0  0  0  0  0  0  0  0  0  0  0  0
   -4.1939    0.0865    1.4258 H   0  0  0  0  0  0  0  0  0  0  0  0
   -5.5110   -0.5558   -1.3601 H   0  0  0  0  0  0  0  0  0  0  0  0
  1 12  2  0  0  0  0
  2  3  1  0  0  0  0
  2  4  1  0  0  0  0
  2 13  1  0  0  0  0
  2 14  1  0  0  0  0
  3  5  1  0  0  0  0
  3 15  1  0  0  0  0
  3 16  1  0  0  0  0
  4  6  1  0  0  0  0
  4 17  1  0  0  0  0
  4 18  1  0  0  0  0
  5  7  1  0  0  0  0
  5 19  1  0  0  0  0
  5 20  1  0  0  0  0
  6  8  1  0  0  0  0
  6 21  1  0  0  0  0
  6 22  1  0  0  0  0
  7  9  1  0  0  0  0
  7 23  1  0  0  0  0
  7 24  1  0  0  0  0
  8 10  1  0  0  0  0
  8 25  1  0  0  0  0
  8 26  1  0  0  0  0
  9 27  1  0  0  0  0
  9 28  1  0  0  0  0
  9 29  1  0  0  0  0
 10 11  2  0  0  0  0
 10 30  1  0  0  0  0
 11 12  1  0  0  0  0
 11 31  1  0  0  0  0
 12 32  1  0  0  0  0
M  END
> <PUBCHEM_COMPOUND_CID>
5283356

> <PUBCHEM_CONFORMER_RMSD>
0.8

> <PUBCHEM_CONFORMER_DIVERSEORDER>
1
42
46
115
69
25
54
39
28
73
108
94
51
71
10
11
97
6
92
64
7
32
77
15
84
88
57
78
34
98
62
22
79
17
96
47
83
37
74
80
12
5
9
52
104
63
53
70
114
58
27
48
61
30
43
67
56
66
72
49
85
87
36
4
95
13
101
65
26
2
107
106
90
31
100
38
50
35
23
75
86
82
33
76
21
8
113
55
91
18
102
110
41
3
14
20
109
112
45
16
60
24
89
105
59
93
111
29
40
68
44
103
81
19
99

> <PUBCHEM_MMFF94_PARTIAL_CHARGES>
8
1 -0.57
10 -0.29
11 -0.14
12 0.5
30 0.15
31 0.15
32 0.06
8 0.14

> <PUBCHEM_EFFECTIVE_ROTOR_COUNT>
8

> <PUBCHEM_PHARMACOPHORE_FEATURES>
2
1 1 acceptor
1 9 hydrophobe

> <PUBCHEM_HEAVY_ATOM_COUNT>
12

> <PUBCHEM_ATOM_DEF_STEREO_COUNT>
0

> <PUBCHEM_ATOM_UDEF_STEREO_COUNT>
0

> <PUBCHEM_BOND_DEF_STEREO_COUNT>
1

> <PUBCHEM_BOND_UDEF_STEREO_COUNT>
0

> <PUBCHEM_ISOTOPIC_ATOM_COUNT>
0

> <PUBCHEM_COMPONENT_COUNT>
1

> <PUBCHEM_CACTVS_TAUTO_COUNT>
1

> <PUBCHEM_CONFORMER_ID>
00509E1C00000001

> <PUBCHEM_MMFF94_ENERGY>
-0.6458

> <PUBCHEM_FEATURE_SELFOVERLAP>
10.148

> <PUBCHEM_SHAPE_FINGERPRINT>
10354089 29 15339120143624157018
117890 112 10087643701787535786
12091667 2 16950283988500683141
12714333 28 11097854090388001820
12815109 37 10665229246091359886
13288520 33 18259985981493586397
13533116 47 13182749100487897260
13964095 4 17458056050715230245
14123238 8 17749108877040969852
1420 363 18342459240074556574
14251718 22 17894911823802188892
14251764 46 17418373588708864550
14350574 20 18334012804381864028
14729087 3 10231758872710253563
15048467 5 10447928369142063098
15242439 84 12396303659849724732
15501527 16 10879993558131251763
15716309 27 18202282511102211391
17834072 33 17967254221595882204
17834072 8 12324242767097461374
17834076 25 10519985967321932029
187816 3 14779265310945219653
20281389 69 11743843551337881994
20621476 38 18339361864913084902
20621476 66 10447930585477219083
20645477 56 10735877266343915273
20645477 70 13118546421513529600
20767249 13 17821729429400707620
20767249 213 9943806690327535051
21130983 4 13326568579917814338
21150785 3 15936413355450062758
22224240 67 16415474961149709503
22896161 15 18334858346504431940
23035841 295 18412262839343898050
23218964 4 9223231849465158260
23402539 116 17676202455483661549
42788 4 18341892983144120744
8209 1 12684811108852757962

> <PUBCHEM_SHAPE_MULTIPOLES>
241.09
17.87
0.89
0.69
3.88
0.03
-0.01
-5.97
1.49
-0.26
0.02
-0.1
0
0.28

> <PUBCHEM_SHAPE_SELFOVERLAP>
434.773

> <PUBCHEM_SHAPE_VOLUME>
154.7

> <PUBCHEM_COORDINATE_TYPE>
2
5
10

$$$$
