5283348
  -OEChem-11232108523D

 29 28  0     0  0  0  0  0  0999 V2000
    2.6531   -1.9873    0.5195 O   0  0  0  0  0  0  0  0  0  0  0  0
    1.1693    1.9731   -0.1969 C   0  0  0  0  0  0  0  0  0  0  0  0
    1.5971    0.5371    0.1299 C   0  0  0  0  0  0  0  0  0  0  0  0
   -0.2244    2.3190    0.3383 C   0  0  0  0  0  0  0  0  0  0  0  0
    2.9824    0.2068   -0.4186 C   0  0  0  0  0  0  0  0  0  0  0  0
   -1.3127    1.4859   -0.2751 C   0  0  0  0  0  0  0  0  0  0  0  0
   -3.2234   -0.1367   -0.1824 C   0  0  0  0  0  0  0  0  0  0  0  0
   -2.1249    0.6840    0.4293 C   0  0  0  0  0  0  0  0  0  0  0  0
   -3.0978   -1.6308    0.1259 C   0  0  0  0  0  0  0  0  0  0  0  0
   -1.7930   -2.2387   -0.3691 C   0  0  0  0  0  0  0  0  0  0  0  0
    3.3743   -1.2125   -0.1008 C   0  0  0  0  0  0  0  0  0  0  0  0
    1.1935    2.1237   -1.2837 H   0  0  0  0  0  0  0  0  0  0  0  0
    1.8949    2.6728    0.2356 H   0  0  0  0  0  0  0  0  0  0  0  0
    1.5837    0.3925    1.2176 H   0  0  0  0  0  0  0  0  0  0  0  0
    0.8741   -0.1712   -0.2910 H   0  0  0  0  0  0  0  0  0  0  0  0
   -0.4355    3.3721    0.1169 H   0  0  0  0  0  0  0  0  0  0  0  0
   -0.2271    2.2233    1.4311 H   0  0  0  0  0  0  0  0  0  0  0  0
    3.7374    0.8694    0.0169 H   0  0  0  0  0  0  0  0  0  0  0  0
    3.0047    0.3243   -1.5070 H   0  0  0  0  0  0  0  0  0  0  0  0
   -1.4362    1.5595   -1.3527 H   0  0  0  0  0  0  0  0  0  0  0  0
   -3.2555    0.0055   -1.2697 H   0  0  0  0  0  0  0  0  0  0  0  0
   -4.1819    0.2245    0.2091 H   0  0  0  0  0  0  0  0  0  0  0  0
   -2.0087    0.6202    1.5084 H   0  0  0  0  0  0  0  0  0  0  0  0
   -3.9369   -2.1576   -0.3440 H   0  0  0  0  0  0  0  0  0  0  0  0
   -3.1841   -1.7982    1.2064 H   0  0  0  0  0  0  0  0  0  0  0  0
   -1.6510   -2.0500   -1.4380 H   0  0  0  0  0  0  0  0  0  0  0  0
   -0.9313   -1.8381    0.1727 H   0  0  0  0  0  0  0  0  0  0  0  0
   -1.8033   -3.3226   -0.2154 H   0  0  0  0  0  0  0  0  0  0  0  0
    4.3671   -1.5258   -0.4654 H   0  0  0  0  0  0  0  0  0  0  0  0
  1 11  2  0  0  0  0
  2  3  1  0  0  0  0
  2  4  1  0  0  0  0
  2 12  1  0  0  0  0
  2 13  1  0  0  0  0
  3  5  1  0  0  0  0
  3 14  1  0  0  0  0
  3 15  1  0  0  0  0
  4  6  1  0  0  0  0
  4 16  1  0  0  0  0
  4 17  1  0  0  0  0
  5 11  1  0  0  0  0
  5 18  1  0  0  0  0
  5 19  1  0  0  0  0
  6  8  2  0  0  0  0
  6 20  1  0  0  0  0
  7  8  1  0  0  0  0
  7  9  1  0  0  0  0
  7 21  1  0  0  0  0
  7 22  1  0  0  0  0
  8 23  1  0  0  0  0
  9 10  1  0  0  0  0
  9 24  1  0  0  0  0
  9 25  1  0  0  0  0
 10 26  1  0  0  0  0
 10 27  1  0  0  0  0
 10 28  1  0  0  0  0
 11 29  1  0  0  0  0
M  END
> <PUBCHEM_COMPOUND_CID>
5283348

> <PUBCHEM_CONFORMER_RMSD>
0.8

> <PUBCHEM_CONFORMER_DIVERSEORDER>
1
30
99
67
5
95
27
107
94
46
112
65
64
108
18
20
36
16
44
2
118
115
22
49
97
12
8
38
110
62
83
80
42
89
33
81
71
35
31
4
10
68
75
116
106
53
28
98
119
82
26
66
96
47
102
63
76
23
101
11
91
37
58
87
90
114
14
48
70
15
120
113
21
117
41
121
34
39
32
40
17
79
19
85
77
25
56
43
122
86
7
74
100
88
84
61
3
69
9
103
52
123
105
78
111
92
24
51
45
72
54
57
104
73
50
109
55
93
6
29
60
59
13

> <PUBCHEM_MMFF94_PARTIAL_CHARGES>
10
1 -0.57
11 0.45
20 0.15
23 0.15
29 0.06
4 0.14
5 0.06
6 -0.29
7 0.14
8 -0.29

> <PUBCHEM_EFFECTIVE_ROTOR_COUNT>
7

> <PUBCHEM_PHARMACOPHORE_FEATURES>
3
1 1 acceptor
1 10 hydrophobe
5 2 3 4 5 6 hydrophobe

> <PUBCHEM_HEAVY_ATOM_COUNT>
11

> <PUBCHEM_ATOM_DEF_STEREO_COUNT>
0

> <PUBCHEM_ATOM_UDEF_STEREO_COUNT>
0

> <PUBCHEM_BOND_DEF_STEREO_COUNT>
1

> <PUBCHEM_BOND_UDEF_STEREO_COUNT>
0

> <PUBCHEM_ISOTOPIC_ATOM_COUNT>
0

> <PUBCHEM_COMPONENT_COUNT>
1

> <PUBCHEM_CACTVS_TAUTO_COUNT>
2

> <PUBCHEM_CONFORMER_ID>
00509E1400000001

> <PUBCHEM_MMFF94_ENERGY>
-1.0801

> <PUBCHEM_FEATURE_SELFOVERLAP>
15.223

> <PUBCHEM_SHAPE_FINGERPRINT>
11321824 6 18271511023030561359
1420 336 18337393738265662858
14251705 54 17976544128209147779
14251711 518 17911797191173671094
14916288 52 18339084920272433167
18342897 69 18339361855626369888
19107657 46 18411700976154203342
20291156 8 18410858775848416431
20645477 70 17974558393509114687
21634736 98 18335430058338986278
23500284 5 18412832369366558649
23530152 11 16968299799479782365
23552423 10 18120658195530329613
58554843 112 18055069036672187273
58999712 31 18338235968678334042
8199 65 16898204838092362311

> <PUBCHEM_SHAPE_MULTIPOLES>
220.51
6.09
2.86
0.7
0.89
0.19
0
3.71
0.14
-0.01
-0.1
0.01
0
-0.32

> <PUBCHEM_SHAPE_SELFOVERLAP>
399.084

> <PUBCHEM_SHAPE_VOLUME>
140.6

> <PUBCHEM_COORDINATE_TYPE>
2
5
10

$$$$
