5283292
  -OEChem-11232108413D

 31 30  0     0  0  0  0  0  0999 V2000
    5.3878    0.9660    0.2870 O   0  0  0  0  0  0  0  0  0  0  0  0
    1.8344   -0.1619   -0.3390 C   0  0  0  0  0  0  0  0  0  0  0  0
    0.9985   -1.3600    0.1236 C   0  0  0  0  0  0  0  0  0  0  0  0
   -3.6937   -0.0522    0.2821 C   0  0  0  0  0  0  0  0  0  0  0  0
   -2.9027   -1.2946   -0.1393 C   0  0  0  0  0  0  0  0  0  0  0  0
    3.2613   -0.1722    0.2228 C   0  0  0  0  0  0  0  0  0  0  0  0
   -3.1044    1.2495   -0.2658 C   0  0  0  0  0  0  0  0  0  0  0  0
   -0.4083   -1.3353   -0.4005 C   0  0  0  0  0  0  0  0  0  0  0  0
   -1.4956   -1.3024    0.3842 C   0  0  0  0  0  0  0  0  0  0  0  0
    4.0820    1.0145   -0.2692 C   0  0  0  0  0  0  0  0  0  0  0  0
   -3.9593    2.4485    0.1142 C   0  0  0  0  0  0  0  0  0  0  0  0
    1.8786   -0.1516   -1.4356 H   0  0  0  0  0  0  0  0  0  0  0  0
    1.3365    0.7679   -0.0348 H   0  0  0  0  0  0  0  0  0  0  0  0
    1.4750   -2.2867   -0.2188 H   0  0  0  0  0  0  0  0  0  0  0  0
    0.9982   -1.3962    1.2201 H   0  0  0  0  0  0  0  0  0  0  0  0
   -3.7427   -0.0001    1.3772 H   0  0  0  0  0  0  0  0  0  0  0  0
   -4.7254   -0.1616   -0.0746 H   0  0  0  0  0  0  0  0  0  0  0  0
   -3.4143   -2.1852    0.2453 H   0  0  0  0  0  0  0  0  0  0  0  0
   -2.9135   -1.3774   -1.2331 H   0  0  0  0  0  0  0  0  0  0  0  0
    3.2303   -0.1655    1.3195 H   0  0  0  0  0  0  0  0  0  0  0  0
    3.7688   -1.1037   -0.0566 H   0  0  0  0  0  0  0  0  0  0  0  0
   -2.0914    1.4049    0.1218 H   0  0  0  0  0  0  0  0  0  0  0  0
   -3.0303    1.1931   -1.3581 H   0  0  0  0  0  0  0  0  0  0  0  0
   -0.5283   -1.3564   -1.4808 H   0  0  0  0  0  0  0  0  0  0  0  0
   -1.3759   -1.2909    1.4647 H   0  0  0  0  0  0  0  0  0  0  0  0
    4.1774    0.9951   -1.3593 H   0  0  0  0  0  0  0  0  0  0  0  0
    3.6183    1.9639    0.0172 H   0  0  0  0  0  0  0  0  0  0  0  0
   -3.5216    3.3683   -0.2865 H   0  0  0  0  0  0  0  0  0  0  0  0
   -4.9727    2.3516   -0.2883 H   0  0  0  0  0  0  0  0  0  0  0  0
   -4.0293    2.5512    1.2018 H   0  0  0  0  0  0  0  0  0  0  0  0
    5.2958    0.9995    1.2544 H   0  0  0  0  0  0  0  0  0  0  0  0
  1 10  1  0  0  0  0
  1 31  1  0  0  0  0
  2  3  1  0  0  0  0
  2  6  1  0  0  0  0
  2 12  1  0  0  0  0
  2 13  1  0  0  0  0
  3  8  1  0  0  0  0
  3 14  1  0  0  0  0
  3 15  1  0  0  0  0
  4  5  1  0  0  0  0
  4  7  1  0  0  0  0
  4 16  1  0  0  0  0
  4 17  1  0  0  0  0
  5  9  1  0  0  0  0
  5 18  1  0  0  0  0
  5 19  1  0  0  0  0
  6 10  1  0  0  0  0
  6 20  1  0  0  0  0
  6 21  1  0  0  0  0
  7 11  1  0  0  0  0
  7 22  1  0  0  0  0
  7 23  1  0  0  0  0
  8  9  2  0  0  0  0
  8 24  1  0  0  0  0
  9 25  1  0  0  0  0
 10 26  1  0  0  0  0
 10 27  1  0  0  0  0
 11 28  1  0  0  0  0
 11 29  1  0  0  0  0
 11 30  1  0  0  0  0
M  END
> <PUBCHEM_COMPOUND_CID>
5283292

> <PUBCHEM_CONFORMER_RMSD>
0.8

> <PUBCHEM_CONFORMER_DIVERSEORDER>
2
62
133
115
47
101
9
5
40
136
37
48
59
110
103
11
94
1
76
23
131
41
27
17
126
70
98
104
3
112
93
4
31
71
54
119
106
29
50
132
34
107
65
36
46
51
55
15
75
121
87
120
16
92
108
63
137
129
24
26
100
123
81
32
72
117
33
69
86
88
116
73
10
109
39
61
130
79
43
25
96
97
91
77
6
49
84
52
22
8
18
21
127
125
135
38
85
53
82
42
118
90
114
28
44
56
68
113
124
58
66
99
134
20
14
30
35
102
78
13
74
89
95
83
7
12
111
67
45
60
57
19
64
128
80
105
122

> <PUBCHEM_MMFF94_PARTIAL_CHARGES>
9
1 -0.68
10 0.28
24 0.15
25 0.15
3 0.14
31 0.4
5 0.14
8 -0.29
9 -0.29

> <PUBCHEM_EFFECTIVE_ROTOR_COUNT>
7

> <PUBCHEM_PHARMACOPHORE_FEATURES>
5
1 1 acceptor
1 1 donor
1 11 hydrophobe
4 2 3 6 8 hydrophobe
4 4 5 7 9 hydrophobe

> <PUBCHEM_HEAVY_ATOM_COUNT>
11

> <PUBCHEM_ATOM_DEF_STEREO_COUNT>
0

> <PUBCHEM_ATOM_UDEF_STEREO_COUNT>
0

> <PUBCHEM_BOND_DEF_STEREO_COUNT>
1

> <PUBCHEM_BOND_UDEF_STEREO_COUNT>
0

> <PUBCHEM_ISOTOPIC_ATOM_COUNT>
0

> <PUBCHEM_COMPONENT_COUNT>
1

> <PUBCHEM_CACTVS_TAUTO_COUNT>
1

> <PUBCHEM_CONFORMER_ID>
00509DDC00000002

> <PUBCHEM_MMFF94_ENERGY>
-1.3006

> <PUBCHEM_FEATURE_SELFOVERLAP>
25.372

> <PUBCHEM_SHAPE_FINGERPRINT>
12006461 19 8862932875458549471
122479 349 18335987484558165899
12346645 44 18334010596763639498
14123255 352 18408881815366181909
14123255 52 18410855447285691794
14123260 362 18410583880872386101
14252887 29 14634858744151457098
15501527 16 18412830183033084504
17834072 32 18338518534677289445
18915474 69 10807928284623272434
201361 129 18114177493423131378
20281475 54 9223220871418350159
20432913 95 14634862059391365034
20645477 56 18202569509586524515
20645477 70 16916803868083062982
20828058 44 7853583408799888254
23402539 116 18264202681490444359
23403322 49 9439400224984889229
23500284 214 18335988588433254955
23557571 272 17988649639809406951
23590187 32 18339643330835396937
23590187 49 18410856517249643125
27216 239 18334020475879055737
59345606 119 8790886289437670896
59345606 38 18337105658262214717
6430166 295 18411135849010922522
7062679 6 18334582386503541756
8199 26 18339925896686243577

> <PUBCHEM_SHAPE_MULTIPOLES>
220.51
10.13
2.13
0.68
8.39
0.82
-0.01
6.85
0.65
-2.12
0.01
-0.02
-0.03
0

> <PUBCHEM_SHAPE_SELFOVERLAP>
393.077

> <PUBCHEM_SHAPE_VOLUME>
143

> <PUBCHEM_COORDINATE_TYPE>
2
5
10

$$$$
