5283357
  -OEChem-11232109093D

 32 31  0     0  0  0  0  0  0999 V2000
    4.7651    1.8139   -0.5684 O   0  0  0  0  0  0  0  0  0  0  0  0
   -2.3026   -0.3387    0.2182 C   0  0  0  0  0  0  0  0  0  0  0  0
   -1.8982   -1.6854   -0.3920 C   0  0  0  0  0  0  0  0  0  0  0  0
   -3.7086    0.0698   -0.2302 C   0  0  0  0  0  0  0  0  0  0  0  0
   -0.5090   -2.1616    0.0454 C   0  0  0  0  0  0  0  0  0  0  0  0
   -4.1763    1.3953    0.3744 C   0  0  0  0  0  0  0  0  0  0  0  0
    0.5973   -1.2461   -0.3930 C   0  0  0  0  0  0  0  0  0  0  0  0
   -5.5623    1.8184   -0.0875 C   0  0  0  0  0  0  0  0  0  0  0  0
    1.4141   -0.6042    0.4553 C   0  0  0  0  0  0  0  0  0  0  0  0
    2.5181    0.3150    0.0154 C   0  0  0  0  0  0  0  0  0  0  0  0
    3.8864   -0.1653    0.4902 C   0  0  0  0  0  0  0  0  0  0  0  0
    4.9762    0.7890    0.0723 C   0  0  0  0  0  0  0  0  0  0  0  0
   -1.5937    0.4426   -0.0788 H   0  0  0  0  0  0  0  0  0  0  0  0
   -2.2716   -0.4077    1.3121 H   0  0  0  0  0  0  0  0  0  0  0  0
   -1.9326   -1.6153   -1.4868 H   0  0  0  0  0  0  0  0  0  0  0  0
   -2.6321   -2.4479   -0.1025 H   0  0  0  0  0  0  0  0  0  0  0  0
   -3.7299    0.1472   -1.3244 H   0  0  0  0  0  0  0  0  0  0  0  0
   -4.4207   -0.7181    0.0451 H   0  0  0  0  0  0  0  0  0  0  0  0
   -0.3231   -3.1519   -0.3877 H   0  0  0  0  0  0  0  0  0  0  0  0
   -0.4986   -2.2922    1.1346 H   0  0  0  0  0  0  0  0  0  0  0  0
   -3.4616    2.1850    0.1137 H   0  0  0  0  0  0  0  0  0  0  0  0
   -4.1762    1.3154    1.4679 H   0  0  0  0  0  0  0  0  0  0  0  0
    0.7295   -1.1176   -1.4644 H   0  0  0  0  0  0  0  0  0  0  0  0
   -5.8439    2.7693    0.3752 H   0  0  0  0  0  0  0  0  0  0  0  0
   -5.5890    1.9464   -1.1743 H   0  0  0  0  0  0  0  0  0  0  0  0
   -6.3109    1.0692    0.1887 H   0  0  0  0  0  0  0  0  0  0  0  0
    1.2795   -0.7306    1.5268 H   0  0  0  0  0  0  0  0  0  0  0  0
    2.3124    1.3133    0.4217 H   0  0  0  0  0  0  0  0  0  0  0  0
    2.5209    0.4214   -1.0769 H   0  0  0  0  0  0  0  0  0  0  0  0
    3.9154   -0.2453    1.5824 H   0  0  0  0  0  0  0  0  0  0  0  0
    4.1220   -1.1481    0.0673 H   0  0  0  0  0  0  0  0  0  0  0  0
    5.9980    0.5092    0.3798 H   0  0  0  0  0  0  0  0  0  0  0  0
  1 12  2  0  0  0  0
  2  3  1  0  0  0  0
  2  4  1  0  0  0  0
  2 13  1  0  0  0  0
  2 14  1  0  0  0  0
  3  5  1  0  0  0  0
  3 15  1  0  0  0  0
  3 16  1  0  0  0  0
  4  6  1  0  0  0  0
  4 17  1  0  0  0  0
  4 18  1  0  0  0  0
  5  7  1  0  0  0  0
  5 19  1  0  0  0  0
  5 20  1  0  0  0  0
  6  8  1  0  0  0  0
  6 21  1  0  0  0  0
  6 22  1  0  0  0  0
  7  9  2  0  0  0  0
  7 23  1  0  0  0  0
  8 24  1  0  0  0  0
  8 25  1  0  0  0  0
  8 26  1  0  0  0  0
  9 10  1  0  0  0  0
  9 27  1  0  0  0  0
 10 11  1  0  0  0  0
 10 28  1  0  0  0  0
 10 29  1  0  0  0  0
 11 12  1  0  0  0  0
 11 30  1  0  0  0  0
 11 31  1  0  0  0  0
 12 32  1  0  0  0  0
M  END
> <PUBCHEM_COMPOUND_CID>
5283357

> <PUBCHEM_CONFORMER_RMSD>
0.8

> <PUBCHEM_CONFORMER_DIVERSEORDER>
2
30
5
61
51
187
117
59
37
80
185
78
167
16
184
103
143
42
32
39
182
10
159
138
112
6
174
41
15
142
186
166
77
62
1
22
21
160
13
140
158
7
26
119
170
55
181
128
69
133
134
67
8
148
179
180
40
88
89
71
50
127
11
125
161
31
73
70
43
75
130
14
23
97
44
84
150
34
24
122
149
29
76
68
54
35
72
38
136
52
94
183
177
48
4
9
96
172
151
17
49
60
27
164
153
3
104
173
165
64
86
46
152
90
79
12
126
145
65
115
107
66
36
175
87
98
155
101
105
95
81
154
176
56
135
132
139
28
171
111
19
108
47
168
178
20
118
93
99
82
57
146
102
63
120
144
169
124
163
123
121
110
116
156
162
85
74
53
33
188
129
45
106
91
137
131
92
58
113
109
157
25
141
114
100
18
147
83

> <PUBCHEM_MMFF94_PARTIAL_CHARGES>
10
1 -0.57
10 0.14
11 0.06
12 0.45
23 0.15
27 0.15
32 0.06
5 0.14
7 -0.29
9 -0.29

> <PUBCHEM_EFFECTIVE_ROTOR_COUNT>
8

> <PUBCHEM_PHARMACOPHORE_FEATURES>
4
1 1 acceptor
1 8 hydrophobe
3 2 4 6 hydrophobe
3 3 5 7 hydrophobe

> <PUBCHEM_HEAVY_ATOM_COUNT>
12

> <PUBCHEM_ATOM_DEF_STEREO_COUNT>
0

> <PUBCHEM_ATOM_UDEF_STEREO_COUNT>
0

> <PUBCHEM_BOND_DEF_STEREO_COUNT>
1

> <PUBCHEM_BOND_UDEF_STEREO_COUNT>
0

> <PUBCHEM_ISOTOPIC_ATOM_COUNT>
0

> <PUBCHEM_COMPONENT_COUNT>
1

> <PUBCHEM_CACTVS_TAUTO_COUNT>
2

> <PUBCHEM_CONFORMER_ID>
00509E1D00000002

> <PUBCHEM_MMFF94_ENERGY>
-1.1053

> <PUBCHEM_FEATURE_SELFOVERLAP>
20.308

> <PUBCHEM_SHAPE_FINGERPRINT>
100836 57 18412266125209981929
122479 349 18408324405920643859
14123255 352 18410575076389830821
14123255 52 18410855438927774891
1420 369 8790887393128442304
14251764 75 17483974687656524401
14252887 29 14562805521989407434
14445660 50 18041275573566281986
14576447 43 10735879482742095432
15501527 16 18412547617561714753
15501527 24 17917421004919958309
17834072 32 18411139164224937364
17834072 8 18202008690337659606
20112054 13 18186523206556796207
20374829 77 9295288335612507379
20388580 30 10519690211764066099
20605781 2 18413108334253474217
20621476 21 13900752282754301893
20621476 66 18409735079898295076
20621476 91 11026085749729251460
20645477 56 18059582441878809923
20645477 70 16773253837563314510
20671657 53 10087632719683254435
20711983 171 18340764935838130286
20724930 69 18412825789376336690
20767249 142 9871744697984893069
20767249 213 18335137584040636141
212847 35 18341608196773830136
21354914 55 18334293154161311753
21426921 1 18197776807115614879
23272321 79 18410012144111910539
23402539 116 18202556285165533214
23402655 69 17846777382302444455
23403322 49 9799692593241937641
23500284 214 18408324380488378827
23590187 49 18411981343351007421
270888 7 18410572860276799121
328317 168 18341890762862176637
351380 3 9223225248164169505
4259306 186 10664098943727228281
59345605 10 8574715689309581348
59345606 38 18411980235386627621
59682541 35 18336273431592695707
59682541 52 16701181863383964429
633830 44 18334292085226723278
6430166 295 18411978074764961154
7062679 13 10015566312636237525
76465 3 9799698086452387854

> <PUBCHEM_SHAPE_MULTIPOLES>
241.09
12.22
2.13
0.71
0.1
0.24
-0.01
-10.74
0.22
-1.02
0.21
0.1
-0.01
-0.53

> <PUBCHEM_SHAPE_SELFOVERLAP>
435.914

> <PUBCHEM_SHAPE_VOLUME>
153.9

> <PUBCHEM_COORDINATE_TYPE>
2
5
10

$$$$
