5283352
  -OEChem-11232109053D

 25 24  0     0  0  0  0  0  0999 V2000
    5.6094    0.8858   -0.1803 O   0  0  0  0  0  0  0  0  0  0  0  0
   -4.2746    1.2311    0.1752 C   0  0  0  0  0  0  0  0  0  0  0  0
   -1.3569   -1.3266   -0.3014 C   0  0  0  0  0  0  0  0  0  0  0  0
   -3.1655    0.4079   -0.4100 C   0  0  0  0  0  0  0  0  0  0  0  0
   -2.4564   -0.4921    0.2879 C   0  0  0  0  0  0  0  0  0  0  0  0
   -5.6168    0.5290    0.0408 C   0  0  0  0  0  0  0  0  0  0  0  0
   -0.0342   -1.0374    0.3485 C   0  0  0  0  0  0  0  0  0  0  0  0
    1.0314   -0.5635   -0.3147 C   0  0  0  0  0  0  0  0  0  0  0  0
    2.2983   -0.2804    0.3222 C   0  0  0  0  0  0  0  0  0  0  0  0
    3.3551    0.1923   -0.3498 C   0  0  0  0  0  0  0  0  0  0  0  0
    4.6101    0.4540    0.3817 C   0  0  0  0  0  0  0  0  0  0  0  0
   -4.3060    2.2016   -0.3328 H   0  0  0  0  0  0  0  0  0  0  0  0
   -4.0775    1.4386    1.2338 H   0  0  0  0  0  0  0  0  0  0  0  0
   -1.5994   -2.3844   -0.1440 H   0  0  0  0  0  0  0  0  0  0  0  0
   -1.2976   -1.1817   -1.3872 H   0  0  0  0  0  0  0  0  0  0  0  0
   -2.9545    0.5542   -1.4663 H   0  0  0  0  0  0  0  0  0  0  0  0
   -2.6846   -0.6462    1.3403 H   0  0  0  0  0  0  0  0  0  0  0  0
   -5.6228   -0.4257    0.5776 H   0  0  0  0  0  0  0  0  0  0  0  0
   -5.8570    0.3316   -1.0095 H   0  0  0  0  0  0  0  0  0  0  0  0
   -6.4129    1.1545    0.4573 H   0  0  0  0  0  0  0  0  0  0  0  0
    0.0399   -1.2395    1.4154 H   0  0  0  0  0  0  0  0  0  0  0  0
    0.9553   -0.3687   -1.3817 H   0  0  0  0  0  0  0  0  0  0  0  0
    2.3667   -0.4686    1.3910 H   0  0  0  0  0  0  0  0  0  0  0  0
    3.3363    0.3955   -1.4145 H   0  0  0  0  0  0  0  0  0  0  0  0
    4.6000    0.2388    1.4633 H   0  0  0  0  0  0  0  0  0  0  0  0
  1 11  2  0  0  0  0
  2  4  1  0  0  0  0
  2  6  1  0  0  0  0
  2 12  1  0  0  0  0
  2 13  1  0  0  0  0
  3  5  1  0  0  0  0
  3  7  1  0  0  0  0
  3 14  1  0  0  0  0
  3 15  1  0  0  0  0
  4  5  2  0  0  0  0
  4 16  1  0  0  0  0
  5 17  1  0  0  0  0
  6 18  1  0  0  0  0
  6 19  1  0  0  0  0
  6 20  1  0  0  0  0
  7  8  2  0  0  0  0
  7 21  1  0  0  0  0
  8  9  1  0  0  0  0
  8 22  1  0  0  0  0
  9 10  2  0  0  0  0
  9 23  1  0  0  0  0
 10 11  1  0  0  0  0
 10 24  1  0  0  0  0
 11 25  1  0  0  0  0
M  END
> <PUBCHEM_COMPOUND_CID>
5283352

> <PUBCHEM_CONFORMER_RMSD>
0.6

> <PUBCHEM_CONFORMER_DIVERSEORDER>
2
34
43
23
32
45
30
13
6
51
18
15
27
14
39
8
4
25
49
54
36
7
29
21
47
28
12
53
46
11
20
38
10
17
19
3
22
44
50
1
41
33
31
55
5
42
16
37
40
48
26
24
9
52
35

> <PUBCHEM_MMFF94_PARTIAL_CHARGES>
17
1 -0.57
10 -0.14
11 0.5
16 0.15
17 0.15
2 0.14
21 0.15
22 0.15
23 0.15
24 0.15
25 0.06
3 0.28
4 -0.29
5 -0.29
7 -0.29
8 -0.15
9 -0.15

> <PUBCHEM_EFFECTIVE_ROTOR_COUNT>
5

> <PUBCHEM_PHARMACOPHORE_FEATURES>
2
1 1 acceptor
1 6 hydrophobe

> <PUBCHEM_HEAVY_ATOM_COUNT>
11

> <PUBCHEM_ATOM_DEF_STEREO_COUNT>
0

> <PUBCHEM_ATOM_UDEF_STEREO_COUNT>
0

> <PUBCHEM_BOND_DEF_STEREO_COUNT>
3

> <PUBCHEM_BOND_UDEF_STEREO_COUNT>
0

> <PUBCHEM_ISOTOPIC_ATOM_COUNT>
0

> <PUBCHEM_COMPONENT_COUNT>
1

> <PUBCHEM_CACTVS_TAUTO_COUNT>
1

> <PUBCHEM_CONFORMER_ID>
00509E1800000002

> <PUBCHEM_MMFF94_ENERGY>
3.8581

> <PUBCHEM_FEATURE_SELFOVERLAP>
10.148

> <PUBCHEM_SHAPE_FINGERPRINT>
10014705 185 18201435930214456898
100836 57 18409171017162949372
10354089 29 17603307055207812964
114248 4 16630524038053127517
12251169 10 15719397234995988555
12714333 28 16988841683310860168
12815109 37 9367344834254485225
13690532 89 10303813185429635832
13964095 4 12031796842628518107
14251752 14 13182752394479912323
14252887 29 14346069790075007650
14455015 7 13479119174073372184
15048467 5 18335702771672220132
15501527 16 18411983584838717344
177051 138 9079115561761753458
17834072 8 18201446857191643406
17834076 25 18272932721824835472
18342897 14 18186801391831092796
187816 3 15698000738682583275
20281389 69 18260825999529192972
20374829 77 9871745785012324669
20432913 95 12396295933129822984
20605781 2 18342175565810852704
20645477 56 18413671326840154847
20645477 70 17131562639409440590
20724930 31 11097855190205610718
20724930 69 18410573989594267410
20767249 213 18333731325521467285
20871999 31 17131538536084474399
21119208 17 15195562403427115553
212847 35 18341326717507400952
23402539 116 18201995551362567215
23402655 69 17489587831568995005
23557571 272 17988085607371324263
351380 3 9871745784812215477
42788 4 18410855455833194498
449060 50 18040434373713373823

> <PUBCHEM_SHAPE_MULTIPOLES>
220.51
12.63
1.19
0.7
2.29
0.1
0
-6.58
-0.17
-0.45
0
0.02
0.02
-0.08

> <PUBCHEM_SHAPE_SELFOVERLAP>
410.085

> <PUBCHEM_SHAPE_VOLUME>
137.4

> <PUBCHEM_COORDINATE_TYPE>
2
5
10

$$$$
