5284369
  -OEChem-11232108423D

 34 35  0     0  0  0  0  0  0999 V2000
    0.8699    0.5976   -0.1262 O   0  0  0  0  0  0  0  0  0  0  0  0
    2.4039    2.2641    0.2846 O   0  0  0  0  0  0  0  0  0  0  0  0
    4.8492    1.5135   -0.6957 N   0  0  0  0  0  0  0  0  0  0  0  0
    3.1216   -0.0042    0.1260 C   0  0  0  0  0  0  0  0  0  0  0  0
    4.4235    0.2363   -0.2670 C   0  0  0  0  0  0  0  0  0  0  0  0
   -3.8128    0.2162    0.1685 C   0  0  0  0  0  0  0  0  0  0  0  0
    2.7029   -1.2527    0.5452 C   0  0  0  0  0  0  0  0  0  0  0  0
   -0.1810    1.5528   -0.1673 C   0  0  0  0  0  0  0  0  0  0  0  0
    2.1179    1.0899    0.1091 C   0  0  0  0  0  0  0  0  0  0  0  0
    5.3432   -0.8120   -0.2400 C   0  0  0  0  0  0  0  0  0  0  0  0
   -2.5382    0.8802    0.3925 C   0  0  0  0  0  0  0  0  0  0  0  0
   -1.4678    0.8398   -0.4335 C   0  0  0  0  0  0  0  0  0  0  0  0
    3.6228   -2.3010    0.5720 C   0  0  0  0  0  0  0  0  0  0  0  0
    4.9429   -2.0807    0.1794 C   0  0  0  0  0  0  0  0  0  0  0  0
   -3.8947   -0.8535   -0.7230 C   0  0  0  0  0  0  0  0  0  0  0  0
   -4.9534    0.6490    0.8452 C   0  0  0  0  0  0  0  0  0  0  0  0
   -5.1171   -1.4902   -0.9382 C   0  0  0  0  0  0  0  0  0  0  0  0
   -6.1755    0.0122    0.6300 C   0  0  0  0  0  0  0  0  0  0  0  0
   -6.2573   -1.0574   -0.2617 C   0  0  0  0  0  0  0  0  0  0  0  0
    1.6865   -1.4516    0.8719 H   0  0  0  0  0  0  0  0  0  0  0  0
    0.0041    2.2664   -0.9785 H   0  0  0  0  0  0  0  0  0  0  0  0
   -0.2182    2.0986    0.7828 H   0  0  0  0  0  0  0  0  0  0  0  0
    6.3753   -0.6544   -0.5431 H   0  0  0  0  0  0  0  0  0  0  0  0
   -2.4637    1.4661    1.3064 H   0  0  0  0  0  0  0  0  0  0  0  0
   -1.5040    0.2935   -1.3716 H   0  0  0  0  0  0  0  0  0  0  0  0
    3.3123   -3.2881    0.9021 H   0  0  0  0  0  0  0  0  0  0  0  0
    5.6592   -2.8967    0.2012 H   0  0  0  0  0  0  0  0  0  0  0  0
   -3.0302   -1.2379   -1.2563 H   0  0  0  0  0  0  0  0  0  0  0  0
   -4.9095    1.4818    1.5430 H   0  0  0  0  0  0  0  0  0  0  0  0
   -5.1806   -2.3261   -1.6287 H   0  0  0  0  0  0  0  0  0  0  0  0
   -7.0637    0.3490    1.1566 H   0  0  0  0  0  0  0  0  0  0  0  0
   -7.2088   -1.5538   -0.4283 H   0  0  0  0  0  0  0  0  0  0  0  0
    4.2018    2.2881   -0.7388 H   0  0  0  0  0  0  0  0  0  0  0  0
    5.8105    1.6524   -0.9782 H   0  0  0  0  0  0  0  0  0  0  0  0
  1  8  1  0  0  0  0
  1  9  1  0  0  0  0
  2  9  2  0  0  0  0
  3  5  1  0  0  0  0
  3 33  1  0  0  0  0
  3 34  1  0  0  0  0
  4  5  1  0  0  0  0
  4  7  2  0  0  0  0
  4  9  1  0  0  0  0
  5 10  2  0  0  0  0
  6 11  1  0  0  0  0
  6 15  2  0  0  0  0
  6 16  1  0  0  0  0
  7 13  1  0  0  0  0
  7 20  1  0  0  0  0
  8 12  1  0  0  0  0
  8 21  1  0  0  0  0
  8 22  1  0  0  0  0
 10 14  1  0  0  0  0
 10 23  1  0  0  0  0
 11 12  2  0  0  0  0
 11 24  1  0  0  0  0
 12 25  1  0  0  0  0
 13 14  2  0  0  0  0
 13 26  1  0  0  0  0
 14 27  1  0  0  0  0
 15 17  1  0  0  0  0
 15 28  1  0  0  0  0
 16 18  2  0  0  0  0
 16 29  1  0  0  0  0
 17 19  2  0  0  0  0
 17 30  1  0  0  0  0
 18 19  1  0  0  0  0
 18 31  1  0  0  0  0
 19 32  1  0  0  0  0
M  END
> <PUBCHEM_COMPOUND_CID>
5284369

> <PUBCHEM_CONFORMER_RMSD>
0.8

> <PUBCHEM_CONFORMER_DIVERSEORDER>
1
31
36
70
44
40
74
41
57
66
9
38
58
77
14
25
72
2
73
30
4
61
7
29
37
28
63
56
53
59
60
50
75
26
20
42
69
33
32
52
45
12
15
5
27
47
71
46
3
62
21
48
22
35
78
16
34
67
23
49
19
76
43
65
54
51
13
64
8
24
10
11
68
55
17
18
6
39

> <PUBCHEM_MMFF94_PARTIAL_CHARGES>
32
1 -0.43
10 -0.15
11 -0.18
12 -0.29
13 -0.15
14 -0.15
15 -0.15
16 -0.15
17 -0.15
18 -0.15
19 -0.15
2 -0.57
20 0.15
23 0.15
24 0.15
25 0.15
26 0.15
27 0.15
28 0.15
29 0.15
3 -0.9
30 0.15
31 0.15
32 0.15
33 0.4
34 0.4
4 0.09
5 0.1
6 0.03
7 -0.15
8 0.42
9 0.63

> <PUBCHEM_EFFECTIVE_ROTOR_COUNT>
5

> <PUBCHEM_PHARMACOPHORE_FEATURES>
5
1 2 acceptor
1 3 cation
1 3 donor
6 4 5 7 10 13 14 rings
6 6 15 16 17 18 19 rings

> <PUBCHEM_HEAVY_ATOM_COUNT>
19

> <PUBCHEM_ATOM_DEF_STEREO_COUNT>
0

> <PUBCHEM_ATOM_UDEF_STEREO_COUNT>
0

> <PUBCHEM_BOND_DEF_STEREO_COUNT>
1

> <PUBCHEM_BOND_UDEF_STEREO_COUNT>
0

> <PUBCHEM_ISOTOPIC_ATOM_COUNT>
0

> <PUBCHEM_COMPONENT_COUNT>
1

> <PUBCHEM_CACTVS_TAUTO_COUNT>
2

> <PUBCHEM_CONFORMER_ID>
0050A21100000001

> <PUBCHEM_MMFF94_ENERGY>
64.1361

> <PUBCHEM_FEATURE_SELFOVERLAP>
25.372

> <PUBCHEM_SHAPE_FINGERPRINT>
10299344 5 18341619213016862399
10595046 47 18341333387592124529
12107183 9 17909556051816831481
12236239 1 18272373074901854881
12516196 113 18342175578775161929
12596602 18 17489585675300455130
13167823 11 18342737438223237941
13533116 47 18412545435386220409
13551218 46 18341332210908235583
13685833 64 18187089464310002651
13955234 65 18268708488393505608
14576447 43 18408604726220752978
15110567 62 18334011662137257186
15188451 53 16343123828057064503
15250474 111 18200864171431539079
15348495 7 14692278582348203383
15537594 2 18341612641732951471
17492 89 18121497947926706402
17834072 33 18411138034621794464
17844677 252 18334861588873068013
17857418 61 18413386532022399503
19489759 90 16271929299191709177
20028762 73 18342172229118103910
20645477 70 18259702285638904146
21065198 48 18272374170102951065
21267235 1 18339929212912653574
212847 35 8358254839491870910
220451 1 18342464759329194885
22061861 79 17821725031528393487
2215653 11 18040994047202658739
22950370 63 18412545401147710137
235170 7 16226322629843758023
23522609 53 18124346914933882465
23559900 14 18338229496563773289
239999 70 18202569501413100740
2767999 5 9295285032487530479
2871803 45 17822008683916197754
2916195 48 11383831563367735263
3004659 81 18187082828348283194
314194 84 18409452487644174435
3411729 13 16629385034465355760
351380 3 18413105056950944703
4073 2 18191307276270158987
4214541 1 18341332211013737001
46194498 28 17167863109793730796
465052 167 18343867710164338086
5104073 3 18201431420699653176
559249 180 18342736296321099943
57483677 66 18413388739656734097
59682541 35 18341884222091150922
960060 61 18040721372054788180

> <PUBCHEM_SHAPE_MULTIPOLES>
374.29
16.87
2.09
0.83
11.03
0.29
-0.01
6.57
-0.16
-2.22
0.03
0.49
0.09
-1.36

> <PUBCHEM_SHAPE_SELFOVERLAP>
798.196

> <PUBCHEM_SHAPE_VOLUME>
207

> <PUBCHEM_COORDINATE_TYPE>
2
5
10

$$$$
