5284656
  -OEChem-11232108543D

 25 25  0     0  0  0  0  0  0999 V2000
    2.7555   -0.2731   -0.1193 O   0  0  0  0  0  0  0  0  0  0  0  0
    0.8723    0.3774    1.0502 O   0  0  0  0  0  0  0  0  0  0  0  0
   -1.3809   -0.6897   -0.3067 C   0  0  0  0  0  0  0  0  0  0  0  0
   -2.4598   -0.9108    0.5493 C   0  0  0  0  0  0  0  0  0  0  0  0
   -1.2436    0.5389   -0.9525 C   0  0  0  0  0  0  0  0  0  0  0  0
   -0.3988   -1.7402   -0.5252 C   0  0  0  0  0  0  0  0  0  0  0  0
    3.4549    0.8893    0.3381 C   0  0  0  0  0  0  0  0  0  0  0  0
   -3.4015    0.0966    0.7594 C   0  0  0  0  0  0  0  0  0  0  0  0
   -2.1851    1.5464   -0.7424 C   0  0  0  0  0  0  0  0  0  0  0  0
   -3.2641    1.3252    0.1135 C   0  0  0  0  0  0  0  0  0  0  0  0
    0.9210   -1.6436   -0.2510 C   0  0  0  0  0  0  0  0  0  0  0  0
    4.8570    0.8774   -0.2325 C   0  0  0  0  0  0  0  0  0  0  0  0
    1.4732   -0.3938    0.3191 C   0  0  0  0  0  0  0  0  0  0  0  0
   -2.5803   -1.8629    1.0606 H   0  0  0  0  0  0  0  0  0  0  0  0
   -0.4187    0.7294   -1.6351 H   0  0  0  0  0  0  0  0  0  0  0  0
   -0.7819   -2.6745   -0.9274 H   0  0  0  0  0  0  0  0  0  0  0  0
    2.9261    1.7886    0.0030 H   0  0  0  0  0  0  0  0  0  0  0  0
    3.5003    0.8808    1.4328 H   0  0  0  0  0  0  0  0  0  0  0  0
   -4.2416   -0.0754    1.4259 H   0  0  0  0  0  0  0  0  0  0  0  0
   -2.0800    2.5021   -1.2476 H   0  0  0  0  0  0  0  0  0  0  0  0
    1.5963   -2.4636   -0.4682 H   0  0  0  0  0  0  0  0  0  0  0  0
   -3.9976    2.1094    0.2765 H   0  0  0  0  0  0  0  0  0  0  0  0
    5.4211    1.7541    0.0976 H   0  0  0  0  0  0  0  0  0  0  0  0
    5.3923   -0.0256    0.0792 H   0  0  0  0  0  0  0  0  0  0  0  0
    4.8275    0.8674   -1.3270 H   0  0  0  0  0  0  0  0  0  0  0  0
  1  7  1  0  0  0  0
  1 13  1  0  0  0  0
  2 13  2  0  0  0  0
  3  4  2  0  0  0  0
  3  5  1  0  0  0  0
  3  6  1  0  0  0  0
  4  8  1  0  0  0  0
  4 14  1  0  0  0  0
  5  9  2  0  0  0  0
  5 15  1  0  0  0  0
  6 11  2  0  0  0  0
  6 16  1  0  0  0  0
  7 12  1  0  0  0  0
  7 17  1  0  0  0  0
  7 18  1  0  0  0  0
  8 10  2  0  0  0  0
  8 19  1  0  0  0  0
  9 10  1  0  0  0  0
  9 20  1  0  0  0  0
 10 22  1  0  0  0  0
 11 13  1  0  0  0  0
 11 21  1  0  0  0  0
 12 23  1  0  0  0  0
 12 24  1  0  0  0  0
 12 25  1  0  0  0  0
M  END
> <PUBCHEM_COMPOUND_CID>
5284656

> <PUBCHEM_CONFORMER_RMSD>
0.6

> <PUBCHEM_CONFORMER_DIVERSEORDER>
1
17
14
18
22
19
4
3
21
20
7
25
28
6
27
26
2
13
5
8
23
24
15
10
16
9
11
12

> <PUBCHEM_MMFF94_PARTIAL_CHARGES>
19
1 -0.43
10 -0.15
11 -0.14
13 0.71
14 0.15
15 0.15
16 0.15
19 0.15
2 -0.57
20 0.15
21 0.15
22 0.15
3 0.03
4 -0.15
5 -0.15
6 -0.18
7 0.28
8 -0.15
9 -0.15

> <PUBCHEM_EFFECTIVE_ROTOR_COUNT>
4

> <PUBCHEM_PHARMACOPHORE_FEATURES>
2
1 2 acceptor
6 3 4 5 8 9 10 rings

> <PUBCHEM_HEAVY_ATOM_COUNT>
13

> <PUBCHEM_ATOM_DEF_STEREO_COUNT>
0

> <PUBCHEM_ATOM_UDEF_STEREO_COUNT>
0

> <PUBCHEM_BOND_DEF_STEREO_COUNT>
1

> <PUBCHEM_BOND_UDEF_STEREO_COUNT>
0

> <PUBCHEM_ISOTOPIC_ATOM_COUNT>
0

> <PUBCHEM_COMPONENT_COUNT>
1

> <PUBCHEM_CACTVS_TAUTO_COUNT>
1

> <PUBCHEM_CONFORMER_ID>
0050A33000000001

> <PUBCHEM_MMFF94_ENERGY>
33.4031

> <PUBCHEM_FEATURE_SELFOVERLAP>
10.148

> <PUBCHEM_SHAPE_FINGERPRINT>
10608611 8 18264487282712183821
10857977 72 17822588101111887335
11031198 65 17917429783083992775
11127187 94 10807933782155173857
11132069 177 18186245021757006661
11543360 7 13901614281983109344
12251169 10 17967537886779040773
12346645 44 18411700971695738130
13214271 11 18259985994014484951
13296909 8 15357969032461634831
13380535 21 18343022176911409246
13549 16 14333136247271046792
13764800 53 18408604730078045897
13897977 58 18041566939641510116
14943859 89 17988925586994272458
15219456 202 18337394824892278159
15775835 57 18343300366253579303
16945 1 18041290919331345999
17834072 14 8790882952306110830
18186145 218 17846777442753798664
20645477 56 18341329002736210488
21119208 17 14405188360925456424
21501502 16 18339632335719229591
21524375 3 18341608239454938654
22485316 2 11671788156929565692
23402539 116 18114178704873018387
23403322 49 9439410124752793652
25 1 18060701667395457434
27216 239 18335419105623820241
57812782 119 8286200539430127664
6430166 295 18412821391925723200
81228 2 17623266678512794754

> <PUBCHEM_SHAPE_MULTIPOLES>
255.8
7.13
1.68
0.91
7.29
0.24
0
-3.54
-0.73
-0.43
0.28
-0.29
-0.07
0.29

> <PUBCHEM_SHAPE_SELFOVERLAP>
524.034

> <PUBCHEM_SHAPE_VOLUME>
147.6

> <PUBCHEM_COORDINATE_TYPE>
2
5
10

$$$$
