528707
  -OEChem-11232109103D

 22 22  0     1  0  0  0  0  0999 V2000
   -0.8853   -2.3658    0.0196 O   0  0  0  0  0  0  0  0  0  0  0  0
    1.8574   -1.5095    0.4452 O   0  0  0  0  0  0  0  0  0  0  0  0
   -0.2907    1.2967   -0.1398 C   0  0  1  0  0  0  0  0  0  0  0  0
    1.1435    0.7934    0.1442 C   0  0  1  0  0  0  0  0  0  0  0  0
   -1.1292    0.0398   -0.1970 C   0  0  0  0  0  0  0  0  0  0  0  0
    0.9651   -0.7026    0.2324 C   0  0  0  0  0  0  0  0  0  0  0  0
   -0.4361   -1.0835    0.0167 C   0  0  0  0  0  0  0  0  0  0  0  0
   -0.7598    2.2618    0.9481 C   0  0  0  0  0  0  0  0  0  0  0  0
    2.1219    1.1537   -0.9633 C   0  0  0  0  0  0  0  0  0  0  0  0
   -2.5869    0.1159   -0.5062 C   0  0  0  0  0  0  0  0  0  0  0  0
   -0.3383    1.8097   -1.1086 H   0  0  0  0  0  0  0  0  0  0  0  0
    1.5146    1.1544    1.1105 H   0  0  0  0  0  0  0  0  0  0  0  0
   -0.7940    1.7782    1.9308 H   0  0  0  0  0  0  0  0  0  0  0  0
   -0.0836    3.1209    1.0165 H   0  0  0  0  0  0  0  0  0  0  0  0
   -1.7611    2.6470    0.7283 H   0  0  0  0  0  0  0  0  0  0  0  0
    2.2049    2.2401   -1.0691 H   0  0  0  0  0  0  0  0  0  0  0  0
    3.1188    0.7564   -0.7437 H   0  0  0  0  0  0  0  0  0  0  0  0
    1.8099    0.7365   -1.9273 H   0  0  0  0  0  0  0  0  0  0  0  0
   -3.1240    0.6402    0.2898 H   0  0  0  0  0  0  0  0  0  0  0  0
   -3.0352   -0.8774   -0.6103 H   0  0  0  0  0  0  0  0  0  0  0  0
   -2.7474    0.6522   -1.4467 H   0  0  0  0  0  0  0  0  0  0  0  0
   -0.1187   -2.9389    0.1942 H   0  0  0  0  0  0  0  0  0  0  0  0
  1  7  1  0  0  0  0
  1 22  1  0  0  0  0
  2  6  2  0  0  0  0
  3  4  1  0  0  0  0
  3  5  1  0  0  0  0
  3  8  1  0  0  0  0
  3 11  1  0  0  0  0
  4  6  1  0  0  0  0
  4  9  1  0  0  0  0
  4 12  1  0  0  0  0
  5  7  2  0  0  0  0
  5 10  1  0  0  0  0
  6  7  1  0  0  0  0
  8 13  1  0  0  0  0
  8 14  1  0  0  0  0
  8 15  1  0  0  0  0
  9 16  1  0  0  0  0
  9 17  1  0  0  0  0
  9 18  1  0  0  0  0
 10 19  1  0  0  0  0
 10 20  1  0  0  0  0
 10 21  1  0  0  0  0
M  END
> <PUBCHEM_COMPOUND_CID>
528707

> <PUBCHEM_CONFORMER_RMSD>
0.4

> <PUBCHEM_CONFORMER_DIVERSEORDER>
1
2

> <PUBCHEM_MMFF94_PARTIAL_CHARGES>
9
1 -0.53
10 0.14
2 -0.57
22 0.45
3 0.14
4 0.06
5 -0.28
6 0.49
7 0.09

> <PUBCHEM_EFFECTIVE_ROTOR_COUNT>
0.4

> <PUBCHEM_PHARMACOPHORE_FEATURES>
3
1 1 donor
1 2 acceptor
5 3 4 5 6 7 rings

> <PUBCHEM_HEAVY_ATOM_COUNT>
10

> <PUBCHEM_ATOM_DEF_STEREO_COUNT>
0

> <PUBCHEM_ATOM_UDEF_STEREO_COUNT>
2

> <PUBCHEM_BOND_DEF_STEREO_COUNT>
0

> <PUBCHEM_BOND_UDEF_STEREO_COUNT>
0

> <PUBCHEM_ISOTOPIC_ATOM_COUNT>
0

> <PUBCHEM_COMPONENT_COUNT>
1

> <PUBCHEM_CACTVS_TAUTO_COUNT>
14

> <PUBCHEM_CONFORMER_ID>
0008114300000001

> <PUBCHEM_MMFF94_ENERGY>
12.5968

> <PUBCHEM_FEATURE_SELFOVERLAP>
15.223

> <PUBCHEM_SHAPE_FINGERPRINT>
12423570 1 8132877869184700737
137420 1 15073065795548815588
16945 1 18262795297452044725
18185500 45 18337667615476472454
21040471 1 18336818801121496981
23552423 10 18192713336851605799
241688 4 17255394925543496195
2748010 2 16103606914445995308
4369600 1 18200310051540136989
5084963 1 18194393403382410529

> <PUBCHEM_SHAPE_MULTIPOLES>
194.06
2.57
2.29
0.85
0.15
0.18
-0.03
-0.07
-0.69
0.17
0.56
-0.12
-0.28
-0.39

> <PUBCHEM_SHAPE_SELFOVERLAP>
394.528

> <PUBCHEM_SHAPE_VOLUME>
115.1

> <PUBCHEM_COORDINATE_TYPE>
2
5
10

$$$$
