528762
  -OEChem-11232108453D

 29 28  0     0  0  0  0  0  0999 V2000
   -4.5697   -0.8492    0.0216 S   0  0  0  0  0  0  0  0  0  0  0  0
   -0.5645    1.3678    0.0163 O   0  0  0  0  0  0  0  0  0  0  0  0
    1.9842    0.2984    0.0355 C   0  0  0  0  0  0  0  0  0  0  0  0
    3.3047   -0.4757   -0.0020 C   0  0  0  0  0  0  0  0  0  0  0  0
    0.7665   -0.6191   -0.0132 C   0  0  0  0  0  0  0  0  0  0  0  0
    4.5037    0.4730    0.0164 C   0  0  0  0  0  0  0  0  0  0  0  0
   -0.5495    0.1367    0.0058 C   0  0  0  0  0  0  0  0  0  0  0  0
   -1.8229   -0.6950    0.0275 C   0  0  0  0  0  0  0  0  0  0  0  0
    5.8177   -0.2886   -0.0525 C   0  0  0  0  0  0  0  0  0  0  0  0
   -3.0728    0.1769    0.0067 C   0  0  0  0  0  0  0  0  0  0  0  0
   -5.7973    0.4749   -0.0620 C   0  0  0  0  0  0  0  0  0  0  0  0
    1.9458    0.9104    0.9454 H   0  0  0  0  0  0  0  0  0  0  0  0
    1.9488    0.9958   -0.8112 H   0  0  0  0  0  0  0  0  0  0  0  0
    3.3570   -1.1550    0.8573 H   0  0  0  0  0  0  0  0  0  0  0  0
    3.3395   -1.0948   -0.9067 H   0  0  0  0  0  0  0  0  0  0  0  0
    0.7909   -1.2233   -0.9269 H   0  0  0  0  0  0  0  0  0  0  0  0
    0.7785   -1.2943    0.8496 H   0  0  0  0  0  0  0  0  0  0  0  0
    4.4850    1.0786    0.9299 H   0  0  0  0  0  0  0  0  0  0  0  0
    4.4455    1.1640   -0.8325 H   0  0  0  0  0  0  0  0  0  0  0  0
   -1.7987   -1.3108    0.9339 H   0  0  0  0  0  0  0  0  0  0  0  0
   -1.8005   -1.3529   -0.8490 H   0  0  0  0  0  0  0  0  0  0  0  0
    6.6612    0.4086   -0.0367 H   0  0  0  0  0  0  0  0  0  0  0  0
    5.8816   -0.8784   -0.9724 H   0  0  0  0  0  0  0  0  0  0  0  0
    5.9223   -0.9679    0.7995 H   0  0  0  0  0  0  0  0  0  0  0  0
   -3.0865    0.8382    0.8799 H   0  0  0  0  0  0  0  0  0  0  0  0
   -3.0787    0.8027   -0.8925 H   0  0  0  0  0  0  0  0  0  0  0  0
   -5.6731    1.0527   -0.9816 H   0  0  0  0  0  0  0  0  0  0  0  0
   -5.7049    1.1358    0.8038 H   0  0  0  0  0  0  0  0  0  0  0  0
   -6.7993    0.0378   -0.0595 H   0  0  0  0  0  0  0  0  0  0  0  0
  1 10  1  0  0  0  0
  1 11  1  0  0  0  0
  2  7  2  0  0  0  0
  3  4  1  0  0  0  0
  3  5  1  0  0  0  0
  3 12  1  0  0  0  0
  3 13  1  0  0  0  0
  4  6  1  0  0  0  0
  4 14  1  0  0  0  0
  4 15  1  0  0  0  0
  5  7  1  0  0  0  0
  5 16  1  0  0  0  0
  5 17  1  0  0  0  0
  6  9  1  0  0  0  0
  6 18  1  0  0  0  0
  6 19  1  0  0  0  0
  7  8  1  0  0  0  0
  8 10  1  0  0  0  0
  8 20  1  0  0  0  0
  8 21  1  0  0  0  0
  9 22  1  0  0  0  0
  9 23  1  0  0  0  0
  9 24  1  0  0  0  0
 10 25  1  0  0  0  0
 10 26  1  0  0  0  0
 11 27  1  0  0  0  0
 11 28  1  0  0  0  0
 11 29  1  0  0  0  0
M  END
> <PUBCHEM_COMPOUND_CID>
528762

> <PUBCHEM_CONFORMER_RMSD>
0.8

> <PUBCHEM_CONFORMER_DIVERSEORDER>
1
198
235
83
169
159
60
271
252
31
180
16
217
14
194
238
140
270
18
53
29
264
185
226
55
3
262
41
20
268
127
219
221
129
171
240
269
10
59
205
260
242
92
8
40
147
78
141
215
89
266
6
98
256
61
12
261
218
163
7
211
49
246
42
214
37
172
199
54
9
200
255
153
122
204
220
100
38
24
132
160
222
213
96
154
137
263
173
186
184
130
249
64
88
144
234
138
97
2
109
250
76
95
106
245
178
115
244
181
248
4
25
80
13
135
102
191
131
177
151
19
56
86
126
32
196
212
124
136
192
79
30
156
28
145
152
114
101
47
236
143
164
253
72
157
93
87
118
207
258
52
74
5
161
232
139
259
84
46
228
15
35
195
66
251
75
170
165
189
237
112
229
34
44
58
175
69
85
257
142
148
48
17
230
224
158
133
187
227
94
210
120
50
113
203
119
77
166
68
39
108
254
202
71
105
209
247
21
22
117
149
223
176
146
162
33
125
265
150
11
123
241
26
110
36
103
116
104
90
201
62
27
243
107
179
239
23
65
208
155
45
193
233
70
121
216
168
183
99
267
82
51
73
67
190
188
206
231
128
225
197
81
91
57
134
63
174
111
182
43
167

> <PUBCHEM_MMFF94_PARTIAL_CHARGES>
7
1 -0.46
10 0.23
11 0.23
2 -0.57
5 0.06
7 0.45
8 0.06

> <PUBCHEM_EFFECTIVE_ROTOR_COUNT>
7

> <PUBCHEM_PHARMACOPHORE_FEATURES>
4
1 11 hydrophobe
1 2 acceptor
1 9 hydrophobe
4 3 4 5 6 hydrophobe

> <PUBCHEM_HEAVY_ATOM_COUNT>
11

> <PUBCHEM_ATOM_DEF_STEREO_COUNT>
0

> <PUBCHEM_ATOM_UDEF_STEREO_COUNT>
0

> <PUBCHEM_BOND_DEF_STEREO_COUNT>
0

> <PUBCHEM_BOND_UDEF_STEREO_COUNT>
0

> <PUBCHEM_ISOTOPIC_ATOM_COUNT>
0

> <PUBCHEM_COMPONENT_COUNT>
1

> <PUBCHEM_CACTVS_TAUTO_COUNT>
3

> <PUBCHEM_CONFORMER_ID>
0008117A00000001

> <PUBCHEM_MMFF94_ENERGY>
5.7935

> <PUBCHEM_FEATURE_SELFOVERLAP>
20.298

> <PUBCHEM_SHAPE_FINGERPRINT>
11062470 55 17167580496692708330
11401426 45 18411981369105025927
12815109 37 18410855464423135591
13533116 47 17240471478327989466
14123238 8 14851602184925387387
17834072 33 17703225225562855413
17834072 8 18410568488400473069
17834076 25 17676206870562198947
187816 3 17022903453837978265
20645477 70 18130229238292507270
20719005 15 18410856572540554698
20767249 13 18408603673225882114
22485316 2 18411417315192327535
23402539 116 18342452660364059383
366044 4 18409166623206099579
42788 4 18410292518970422887
4463277 17 18410293622677070508
68521 5 18411139100148866865
8209 1 18410856564409536598

> <PUBCHEM_SHAPE_MULTIPOLES>
224.36
13.57
0.98
0.62
1.37
0.07
0
-0.28
-0.25
-0.39
0
-0.03
-0.02
0.04

> <PUBCHEM_SHAPE_SELFOVERLAP>
391.245

> <PUBCHEM_SHAPE_VOLUME>
149

> <PUBCHEM_COORDINATE_TYPE>
2
5
10

$$$$
