528704
  -OEChem-11232109203D

 22 22  0     1  0  0  0  0  0999 V2000
    2.5377   -0.8308    0.3670 O   0  0  0  0  0  0  0  0  0  0  0  0
    1.8281    1.9834    0.1346 O   0  0  0  0  0  0  0  0  0  0  0  0
   -1.0057   -0.1059   -0.4673 C   0  0  1  0  0  0  0  0  0  0  0  0
   -0.4257    1.3179   -0.4406 C   0  0  0  0  0  0  0  0  0  0  0  0
    0.1760   -1.0002   -0.1733 C   0  0  0  0  0  0  0  0  0  0  0  0
   -2.1351   -0.2661    0.5473 C   0  0  0  0  0  0  0  0  0  0  0  0
    1.0066    1.0982   -0.0476 C   0  0  0  0  0  0  0  0  0  0  0  0
    1.3084   -0.3329    0.0732 C   0  0  0  0  0  0  0  0  0  0  0  0
    0.0269   -2.4841   -0.1977 C   0  0  0  0  0  0  0  0  0  0  0  0
   -3.3170    0.6205    0.2045 C   0  0  0  0  0  0  0  0  0  0  0  0
   -1.3828   -0.3251   -1.4746 H   0  0  0  0  0  0  0  0  0  0  0  0
   -0.8918    1.9760    0.2971 H   0  0  0  0  0  0  0  0  0  0  0  0
   -0.4620    1.7773   -1.4332 H   0  0  0  0  0  0  0  0  0  0  0  0
   -1.7866   -0.0355    1.5617 H   0  0  0  0  0  0  0  0  0  0  0  0
   -2.4804   -1.3069    0.5615 H   0  0  0  0  0  0  0  0  0  0  0  0
   -0.4664   -2.7952   -1.1246 H   0  0  0  0  0  0  0  0  0  0  0  0
   -0.5828   -2.8218    0.6459 H   0  0  0  0  0  0  0  0  0  0  0  0
    0.9814   -3.0145   -0.1507 H   0  0  0  0  0  0  0  0  0  0  0  0
   -3.0795    1.6848    0.2830 H   0  0  0  0  0  0  0  0  0  0  0  0
   -3.6770    0.4229   -0.8104 H   0  0  0  0  0  0  0  0  0  0  0  0
   -4.1437    0.4210    0.8947 H   0  0  0  0  0  0  0  0  0  0  0  0
    2.4850   -1.7985    0.4182 H   0  0  0  0  0  0  0  0  0  0  0  0
  1  8  1  0  0  0  0
  1 22  1  0  0  0  0
  2  7  2  0  0  0  0
  3  4  1  0  0  0  0
  3  5  1  0  0  0  0
  3  6  1  0  0  0  0
  3 11  1  0  0  0  0
  4  7  1  0  0  0  0
  4 12  1  0  0  0  0
  4 13  1  0  0  0  0
  5  8  2  0  0  0  0
  5  9  1  0  0  0  0
  6 10  1  0  0  0  0
  6 14  1  0  0  0  0
  6 15  1  0  0  0  0
  7  8  1  0  0  0  0
  9 16  1  0  0  0  0
  9 17  1  0  0  0  0
  9 18  1  0  0  0  0
 10 19  1  0  0  0  0
 10 20  1  0  0  0  0
 10 21  1  0  0  0  0
M  END
> <PUBCHEM_COMPOUND_CID>
528704

> <PUBCHEM_CONFORMER_RMSD>
0.4

> <PUBCHEM_CONFORMER_DIVERSEORDER>
3
2
4
1

> <PUBCHEM_MMFF94_PARTIAL_CHARGES>
9
1 -0.53
2 -0.57
22 0.45
3 0.14
4 0.06
5 -0.28
7 0.49
8 0.09
9 0.14

> <PUBCHEM_EFFECTIVE_ROTOR_COUNT>
1.4

> <PUBCHEM_PHARMACOPHORE_FEATURES>
4
1 1 donor
1 10 hydrophobe
1 2 acceptor
5 3 4 5 7 8 rings

> <PUBCHEM_HEAVY_ATOM_COUNT>
10

> <PUBCHEM_ATOM_DEF_STEREO_COUNT>
0

> <PUBCHEM_ATOM_UDEF_STEREO_COUNT>
1

> <PUBCHEM_BOND_DEF_STEREO_COUNT>
0

> <PUBCHEM_BOND_UDEF_STEREO_COUNT>
0

> <PUBCHEM_ISOTOPIC_ATOM_COUNT>
0

> <PUBCHEM_COMPONENT_COUNT>
1

> <PUBCHEM_CACTVS_TAUTO_COUNT>
21

> <PUBCHEM_CONFORMER_ID>
0008114000000003

> <PUBCHEM_MMFF94_ENERGY>
9.2614

> <PUBCHEM_FEATURE_SELFOVERLAP>
20.297

> <PUBCHEM_SHAPE_FINGERPRINT>
10219947 1 18339361859821116867
12423570 1 10956222625948927085
161256 15 17839186207800569574
16945 1 18339927000376495215
193761 8 18050567640484131494
21040471 1 18194688287273484085
23552423 10 17828762082060794572
241688 4 17474396772581987259
2748010 2 18337113478922621183
29004967 10 18265055738824208571
5084963 1 18131626790152739787
53812653 11 18412549794809674454

> <PUBCHEM_SHAPE_MULTIPOLES>
194.06
3.39
2.08
0.7
2.11
0.57
-0.01
-0.69
0.67
-0.86
-0.13
0.1
0.01
0.02

> <PUBCHEM_SHAPE_SELFOVERLAP>
392.117

> <PUBCHEM_SHAPE_VOLUME>
114.8

> <PUBCHEM_COORDINATE_TYPE>
2
5
10

$$$$
