529054
  -OEChem-11232108473D

 25 25  0     1  0  0  0  0  0999 V2000
   -0.8770    1.0840    0.9977 S   0  0  0  0  0  0  0  0  0  0  0  0
    0.3003   -1.6995    0.8376 S   0  0  0  0  0  0  0  0  0  0  0  0
    1.6027    0.5492   -0.0701 N   0  0  0  0  0  0  0  0  0  0  0  0
   -1.2072   -0.6837    0.6976 C   0  0  0  0  0  0  0  0  0  0  0  0
    0.4194    1.3880   -0.2543 C   0  0  2  0  0  0  0  0  0  0  0  0
    1.3708   -0.8601   -0.3833 C   0  0  1  0  0  0  0  0  0  0  0  0
   -1.9415   -0.9188   -0.6179 C   0  0  0  0  0  0  0  0  0  0  0  0
    0.8493    2.8508   -0.1385 C   0  0  0  0  0  0  0  0  0  0  0  0
    2.7222   -1.5754   -0.3915 C   0  0  0  0  0  0  0  0  0  0  0  0
   -3.2390   -0.1345   -0.6772 C   0  0  0  0  0  0  0  0  0  0  0  0
   -1.8581   -1.0098    1.5161 H   0  0  0  0  0  0  0  0  0  0  0  0
   -0.0047    1.2492   -1.2550 H   0  0  0  0  0  0  0  0  0  0  0  0
    0.9371   -0.9706   -1.3832 H   0  0  0  0  0  0  0  0  0  0  0  0
    2.3547    0.9013   -0.6633 H   0  0  0  0  0  0  0  0  0  0  0  0
   -2.1845   -1.9853   -0.7106 H   0  0  0  0  0  0  0  0  0  0  0  0
   -1.3339   -0.6631   -1.4923 H   0  0  0  0  0  0  0  0  0  0  0  0
    1.5974    3.0970   -0.9016 H   0  0  0  0  0  0  0  0  0  0  0  0
    0.0015    3.5279   -0.2950 H   0  0  0  0  0  0  0  0  0  0  0  0
    1.2909    3.0761    0.8398 H   0  0  0  0  0  0  0  0  0  0  0  0
    3.3893   -1.1362   -1.1430 H   0  0  0  0  0  0  0  0  0  0  0  0
    3.2308   -1.5100    0.5780 H   0  0  0  0  0  0  0  0  0  0  0  0
    2.6097   -2.6353   -0.6478 H   0  0  0  0  0  0  0  0  0  0  0  0
   -3.8505   -0.2992    0.2160 H   0  0  0  0  0  0  0  0  0  0  0  0
   -3.0744    0.9400   -0.7988 H   0  0  0  0  0  0  0  0  0  0  0  0
   -3.8263   -0.4621   -1.5422 H   0  0  0  0  0  0  0  0  0  0  0  0
  1  4  1  0  0  0  0
  1  5  1  0  0  0  0
  2  4  1  0  0  0  0
  2  6  1  0  0  0  0
  3  5  1  0  0  0  0
  3  6  1  0  0  0  0
  3 14  1  0  0  0  0
  4  7  1  0  0  0  0
  4 11  1  0  0  0  0
  5  8  1  0  0  0  0
  5 12  1  0  0  0  0
  6  9  1  0  0  0  0
  6 13  1  0  0  0  0
  7 10  1  0  0  0  0
  7 15  1  0  0  0  0
  7 16  1  0  0  0  0
  8 17  1  0  0  0  0
  8 18  1  0  0  0  0
  8 19  1  0  0  0  0
  9 20  1  0  0  0  0
  9 21  1  0  0  0  0
  9 22  1  0  0  0  0
 10 23  1  0  0  0  0
 10 24  1  0  0  0  0
 10 25  1  0  0  0  0
M  END
> <PUBCHEM_COMPOUND_CID>
529054

> <PUBCHEM_CONFORMER_RMSD>
0.4

> <PUBCHEM_CONFORMER_DIVERSEORDER>
2
12
10
27
14
11
28
22
4
20
25
17
18
9
5
16
7
3
19
21
8
1
6
15
23
26
24
13

> <PUBCHEM_MMFF94_PARTIAL_CHARGES>
7
1 -0.46
14 0.36
2 -0.46
3 -0.9
4 0.46
5 0.5
6 0.5

> <PUBCHEM_EFFECTIVE_ROTOR_COUNT>
2.2

> <PUBCHEM_PHARMACOPHORE_FEATURES>
4
1 10 hydrophobe
1 3 cation
1 3 donor
6 1 2 3 4 5 6 rings

> <PUBCHEM_HEAVY_ATOM_COUNT>
10

> <PUBCHEM_ATOM_DEF_STEREO_COUNT>
0

> <PUBCHEM_ATOM_UDEF_STEREO_COUNT>
2

> <PUBCHEM_BOND_DEF_STEREO_COUNT>
0

> <PUBCHEM_BOND_UDEF_STEREO_COUNT>
0

> <PUBCHEM_ISOTOPIC_ATOM_COUNT>
0

> <PUBCHEM_COMPONENT_COUNT>
1

> <PUBCHEM_CACTVS_TAUTO_COUNT>
1

> <PUBCHEM_CONFORMER_ID>
0008129E00000002

> <PUBCHEM_MMFF94_ENERGY>
8.2139

> <PUBCHEM_FEATURE_SELFOVERLAP>
20.297

> <PUBCHEM_SHAPE_FINGERPRINT>
1 1 17979071913893806108
10149128 76 17903068172771612997
12423570 1 16387626848110386376
14120999 15 18336827476981834589
14128692 85 18130781265827154511
14817 1 14598074895575450067
16945 1 18268436900103643729
18185500 45 18338804394509264611
20653085 51 14563400366270053710
20711985 344 18051408461730902450
20871998 184 17692268343163150640
21040471 1 17402892718219106944
21947302 44 18117545443593809477
220403 375 17688016931072412224
23552423 10 18340766065345788295
241688 4 18267307534327044048
2748010 2 18410019805742826888
535629 181 18267601125274867951
53812653 217 17617947924077682702
63268167 104 18409736178781759561
81228 2 18050014298514846392

> <PUBCHEM_SHAPE_MULTIPOLES>
208.51
3.48
2.56
0.99
1.08
1.9
-0.16
-1.62
1.2
-1.14
-0.06
0.29
-0.13
-0.15

> <PUBCHEM_SHAPE_SELFOVERLAP>
367.67

> <PUBCHEM_SHAPE_VOLUME>
135.5

> <PUBCHEM_COORDINATE_TYPE>
2
5
10

$$$$
