529049
  -OEChem-11232109103D

 27 27  0     1  0  0  0  0  0999 V2000
    0.0000   -1.2960   -0.0002 S   0  0  0  0  0  0  0  0  0  0  0  0
    0.5740    1.5349   -0.8455 S   0  0  0  0  0  0  0  0  0  0  0  0
   -0.5738    1.5351    0.8449 S   0  0  0  0  0  0  0  0  0  0  0  0
    1.2675   -0.1266   -0.6407 C   0  0  1  0  0  0  0  0  0  0  0  0
   -1.2675   -0.1264    0.6405 C   0  0  1  0  0  0  0  0  0  0  0  0
    2.4743   -0.1104    0.2923 C   0  0  0  0  0  0  0  0  0  0  0  0
   -2.4745   -0.1103   -0.2921 C   0  0  0  0  0  0  0  0  0  0  0  0
    3.0606   -1.5134    0.4386 C   0  0  0  0  0  0  0  0  0  0  0  0
    3.5357    0.8633   -0.2170 C   0  0  0  0  0  0  0  0  0  0  0  0
   -3.0605   -1.5134   -0.4384 C   0  0  0  0  0  0  0  0  0  0  0  0
   -3.5359    0.8631    0.2175 C   0  0  0  0  0  0  0  0  0  0  0  0
    1.5651   -0.4854   -1.6319 H   0  0  0  0  0  0  0  0  0  0  0  0
   -1.5648   -0.4852    1.6319 H   0  0  0  0  0  0  0  0  0  0  0  0
    2.1885    0.2222    1.2997 H   0  0  0  0  0  0  0  0  0  0  0  0
   -2.1890    0.2224   -1.2996 H   0  0  0  0  0  0  0  0  0  0  0  0
    3.2653   -1.9665   -0.5377 H   0  0  0  0  0  0  0  0  0  0  0  0
    4.0099   -1.4758    0.9858 H   0  0  0  0  0  0  0  0  0  0  0  0
    2.4125   -2.1878    1.0056 H   0  0  0  0  0  0  0  0  0  0  0  0
    3.7940    0.6638   -1.2629 H   0  0  0  0  0  0  0  0  0  0  0  0
    4.4562    0.7677    0.3706 H   0  0  0  0  0  0  0  0  0  0  0  0
    3.2277    1.9092   -0.1283 H   0  0  0  0  0  0  0  0  0  0  0  0
   -3.2647   -1.9667    0.5379 H   0  0  0  0  0  0  0  0  0  0  0  0
   -4.0100   -1.4759   -0.9852 H   0  0  0  0  0  0  0  0  0  0  0  0
   -2.4125   -2.1874   -1.0059 H   0  0  0  0  0  0  0  0  0  0  0  0
   -3.7940    0.6633    1.2635 H   0  0  0  0  0  0  0  0  0  0  0  0
   -4.4564    0.7675   -0.3700 H   0  0  0  0  0  0  0  0  0  0  0  0
   -3.2280    1.9091    0.1289 H   0  0  0  0  0  0  0  0  0  0  0  0
  1  4  1  0  0  0  0
  1  5  1  0  0  0  0
  2  3  1  0  0  0  0
  2  4  1  0  0  0  0
  3  5  1  0  0  0  0
  4  6  1  0  0  0  0
  4 12  1  0  0  0  0
  5  7  1  0  0  0  0
  5 13  1  0  0  0  0
  6  8  1  0  0  0  0
  6  9  1  0  0  0  0
  6 14  1  0  0  0  0
  7 10  1  0  0  0  0
  7 11  1  0  0  0  0
  7 15  1  0  0  0  0
  8 16  1  0  0  0  0
  8 17  1  0  0  0  0
  8 18  1  0  0  0  0
  9 19  1  0  0  0  0
  9 20  1  0  0  0  0
  9 21  1  0  0  0  0
 10 22  1  0  0  0  0
 10 23  1  0  0  0  0
 10 24  1  0  0  0  0
 11 25  1  0  0  0  0
 11 26  1  0  0  0  0
 11 27  1  0  0  0  0
M  END
> <PUBCHEM_COMPOUND_CID>
529049

> <PUBCHEM_CONFORMER_RMSD>
0.6

> <PUBCHEM_CONFORMER_DIVERSEORDER>
1
33
9
25
28
26
11
27
4
13
30
24
20
8
32
10
6
31
17
23
2
18
29
3
19
5
12
7
22
21
16
14
15

> <PUBCHEM_MMFF94_PARTIAL_CHARGES>
5
1 -0.46
2 -0.23
3 -0.23
4 0.46
5 0.46

> <PUBCHEM_EFFECTIVE_ROTOR_COUNT>
3

> <PUBCHEM_PHARMACOPHORE_FEATURES>
3
3 6 8 9 hydrophobe
3 7 10 11 hydrophobe
5 1 2 3 4 5 rings

> <PUBCHEM_HEAVY_ATOM_COUNT>
11

> <PUBCHEM_ATOM_DEF_STEREO_COUNT>
0

> <PUBCHEM_ATOM_UDEF_STEREO_COUNT>
2

> <PUBCHEM_BOND_DEF_STEREO_COUNT>
0

> <PUBCHEM_BOND_UDEF_STEREO_COUNT>
0

> <PUBCHEM_ISOTOPIC_ATOM_COUNT>
0

> <PUBCHEM_COMPONENT_COUNT>
1

> <PUBCHEM_CACTVS_TAUTO_COUNT>
1

> <PUBCHEM_CONFORMER_ID>
0008129900000001

> <PUBCHEM_MMFF94_ENERGY>
20.9255

> <PUBCHEM_FEATURE_SELFOVERLAP>
15.223

> <PUBCHEM_SHAPE_FINGERPRINT>
10219947 1 18334297543554578254
10857977 72 17060337435322907761
11062470 55 18409450284294465189
11132069 177 18342168938929418800
11769659 78 18410566288570336038
12382932 28 18202289074065401731
12932764 1 18410863161004620961
14128692 85 18341612680598367509
14144814 61 18335139812384903267
14325111 11 18410573993752045678
14993402 34 18336548304218325710
15775835 57 18410859858174718372
16945 1 18410860957686417605
18175812 5 15770055042490543969
18186145 218 18187644686915859206
18511873 20 18336266756406616229
20201158 50 18187364363132704634
20711985 365 18194399983320008112
207724 885 18040719164541857005
21501502 16 18266745684259861560
23402539 116 18343576352731519294
23463225 33 18336546027806660654
23532345 42 18200301251457836560
23552423 10 18264209299739011517
23557571 272 16343714248415685809
23559900 14 18131069316862759128
3248919 1 17203334372828707595
63268167 104 18334014999252427664
75552 356 18343866623468864671
9939556 21 18336269024175676965

> <PUBCHEM_SHAPE_MULTIPOLES>
237.92
5.83
1.82
0.91
0
0.03
0
0.77
0
0
0
0
-0.17
-0.62

> <PUBCHEM_SHAPE_SELFOVERLAP>
418.516

> <PUBCHEM_SHAPE_VOLUME>
157.2

> <PUBCHEM_COORDINATE_TYPE>
2
5
10

$$$$
