529055
  -OEChem-11232109433D

 28 28  0     1  0  0  0  0  0999 V2000
    0.0734   -1.4960    0.2702 S   0  0  0  0  0  0  0  0  0  0  0  0
   -0.3004    1.4281    0.8549 S   0  0  0  0  0  0  0  0  0  0  0  0
    2.1869    0.2564    0.4935 N   0  0  0  0  0  0  0  0  0  0  0  0
   -0.8967   -0.0027   -0.1020 C   0  0  0  0  0  0  0  0  0  0  0  0
   -2.3590   -0.2590    0.2491 C   0  0  0  0  0  0  0  0  0  0  0  0
    1.7151   -0.9033   -0.2677 C   0  0  1  0  0  0  0  0  0  0  0  0
    1.4344    1.4978    0.2787 C   0  0  1  0  0  0  0  0  0  0  0  0
   -3.2121    0.9673   -0.0695 C   0  0  0  0  0  0  0  0  0  0  0  0
   -2.8844   -1.4852   -0.4952 C   0  0  0  0  0  0  0  0  0  0  0  0
    2.7080   -2.0505   -0.0671 C   0  0  0  0  0  0  0  0  0  0  0  0
    1.5346    2.0471   -1.1450 C   0  0  0  0  0  0  0  0  0  0  0  0
   -0.8113    0.2157   -1.1717 H   0  0  0  0  0  0  0  0  0  0  0  0
   -2.4704   -0.4617    1.3242 H   0  0  0  0  0  0  0  0  0  0  0  0
    1.6807   -0.6873   -1.3403 H   0  0  0  0  0  0  0  0  0  0  0  0
    1.9086    2.2461    0.9245 H   0  0  0  0  0  0  0  0  0  0  0  0
    2.1740    0.0288    1.4875 H   0  0  0  0  0  0  0  0  0  0  0  0
   -3.0159    1.8097    0.6000 H   0  0  0  0  0  0  0  0  0  0  0  0
   -4.2767    0.7327    0.0453 H   0  0  0  0  0  0  0  0  0  0  0  0
   -3.0621    1.3025   -1.1019 H   0  0  0  0  0  0  0  0  0  0  0  0
   -2.4721   -2.4250   -0.1164 H   0  0  0  0  0  0  0  0  0  0  0  0
   -3.9712   -1.5669   -0.3760 H   0  0  0  0  0  0  0  0  0  0  0  0
   -2.6801   -1.4215   -1.5699 H   0  0  0  0  0  0  0  0  0  0  0  0
    3.7086   -1.7545   -0.4041 H   0  0  0  0  0  0  0  0  0  0  0  0
    2.7908   -2.3490    0.9850 H   0  0  0  0  0  0  0  0  0  0  0  0
    2.4215   -2.9323   -0.6520 H   0  0  0  0  0  0  0  0  0  0  0  0
    1.0950    3.0492   -1.2080 H   0  0  0  0  0  0  0  0  0  0  0  0
    2.5849    2.1385   -1.4449 H   0  0  0  0  0  0  0  0  0  0  0  0
    1.0352    1.4162   -1.8860 H   0  0  0  0  0  0  0  0  0  0  0  0
  1  4  1  0  0  0  0
  1  6  1  0  0  0  0
  2  4  1  0  0  0  0
  2  7  1  0  0  0  0
  3  6  1  0  0  0  0
  3  7  1  0  0  0  0
  3 16  1  0  0  0  0
  4  5  1  0  0  0  0
  4 12  1  0  0  0  0
  5  8  1  0  0  0  0
  5  9  1  0  0  0  0
  5 13  1  0  0  0  0
  6 10  1  0  0  0  0
  6 14  1  0  0  0  0
  7 11  1  0  0  0  0
  7 15  1  0  0  0  0
  8 17  1  0  0  0  0
  8 18  1  0  0  0  0
  8 19  1  0  0  0  0
  9 20  1  0  0  0  0
  9 21  1  0  0  0  0
  9 22  1  0  0  0  0
 10 23  1  0  0  0  0
 10 24  1  0  0  0  0
 10 25  1  0  0  0  0
 11 26  1  0  0  0  0
 11 27  1  0  0  0  0
 11 28  1  0  0  0  0
M  END
> <PUBCHEM_COMPOUND_CID>
529055

> <PUBCHEM_CONFORMER_RMSD>
0.6

> <PUBCHEM_CONFORMER_DIVERSEORDER>
1
7
14
8
16
11
6
15
10
17
12
13
5
9
2
4
3

> <PUBCHEM_MMFF94_PARTIAL_CHARGES>
7
1 -0.46
16 0.36
2 -0.46
3 -0.9
4 0.46
6 0.5
7 0.5

> <PUBCHEM_EFFECTIVE_ROTOR_COUNT>
2.2

> <PUBCHEM_PHARMACOPHORE_FEATURES>
4
1 3 cation
1 3 donor
3 5 8 9 hydrophobe
6 1 2 3 4 6 7 rings

> <PUBCHEM_HEAVY_ATOM_COUNT>
11

> <PUBCHEM_ATOM_DEF_STEREO_COUNT>
0

> <PUBCHEM_ATOM_UDEF_STEREO_COUNT>
2

> <PUBCHEM_BOND_DEF_STEREO_COUNT>
0

> <PUBCHEM_BOND_UDEF_STEREO_COUNT>
0

> <PUBCHEM_ISOTOPIC_ATOM_COUNT>
0

> <PUBCHEM_COMPONENT_COUNT>
1

> <PUBCHEM_CACTVS_TAUTO_COUNT>
1

> <PUBCHEM_CONFORMER_ID>
0008129F00000001

> <PUBCHEM_MMFF94_ENERGY>
18.2062

> <PUBCHEM_FEATURE_SELFOVERLAP>
20.297

> <PUBCHEM_SHAPE_FINGERPRINT>
12932764 1 17845377815880347417
13380535 76 18119243119675274250
14128692 85 18342741788587382354
14325111 11 18411416258672310977
14817 1 13611663221710667148
15775835 57 18199194056191719797
16945 1 18123752229666499179
17990270 104 18409164432740753354
18511873 20 18339645512646784041
19021347 11 18267021854492973806
19973954 147 18409168835393299051
20201158 50 18410007753885467195
20645477 70 18338228362729466759
20711985 344 17755856420712710224
21040471 1 18051130590374281832
21501502 16 18411984702062990095
21524375 3 17536874751541728948
23235687 12 17968366944290054301
23402539 116 18339633426820491814
23526114 1 18411698811611966447
23532345 88 18408601491461636919
23552423 10 18408886256546793779
241688 4 18120657929199938608
2748010 2 18411695469874189451
3071541 158 18334297522243415220
3248919 1 18115018740256441753
5084963 1 18410289250526677993
528862 383 18335413633888057114
63268167 104 18413393128775700833
66348 1 17907579129556375867
7364860 26 18343020029733326488
81228 2 17761784966050834602
9939556 21 18412546500859616159

> <PUBCHEM_SHAPE_MULTIPOLES>
229.09
4.52
2.4
0.89
2.24
0.03
0.06
-1.15
0.49
-1.17
0.27
-0.13
0.31
-0.4

> <PUBCHEM_SHAPE_SELFOVERLAP>
409.679

> <PUBCHEM_SHAPE_VOLUME>
148.2

> <PUBCHEM_COORDINATE_TYPE>
2
5
10

$$$$
