529068
  -OEChem-11232109043D

 26 27  0     1  0  0  0  0  0999 V2000
   -0.8292    1.7909   -0.7189 S   0  0  0  0  0  0  0  0  0  0  0  0
   -1.9282   -1.0260   -0.6882 S   0  0  0  0  0  0  0  0  0  0  0  0
    0.7241   -0.4485   -0.2217 N   0  0  1  0  0  0  0  0  0  0  0  0
    0.5043    0.9495    0.1760 C   0  0  1  0  0  0  0  0  0  0  0  0
    1.8497    1.5843   -0.1597 C   0  0  0  0  0  0  0  0  0  0  0  0
    2.0431   -0.7803    0.3302 C   0  0  0  0  0  0  0  0  0  0  0  0
    2.8637    0.4929    0.1600 C   0  0  0  0  0  0  0  0  0  0  0  0
   -0.3528   -1.3478    0.2174 C   0  0  2  0  0  0  0  0  0  0  0  0
   -2.2264    0.7194   -0.2525 C   0  0  1  0  0  0  0  0  0  0  0  0
   -0.0228   -2.8232   -0.0520 C   0  0  0  0  0  0  0  0  0  0  0  0
   -2.6255    0.8887    1.2094 C   0  0  0  0  0  0  0  0  0  0  0  0
    0.3334    1.0385    1.2565 H   0  0  0  0  0  0  0  0  0  0  0  0
    2.0393    2.4908    0.4251 H   0  0  0  0  0  0  0  0  0  0  0  0
    1.9347    1.8450   -1.2230 H   0  0  0  0  0  0  0  0  0  0  0  0
    2.5115   -1.6158   -0.1995 H   0  0  0  0  0  0  0  0  0  0  0  0
    1.9815   -1.0328    1.3966 H   0  0  0  0  0  0  0  0  0  0  0  0
    3.5896    0.3977   -0.6550 H   0  0  0  0  0  0  0  0  0  0  0  0
    3.4150    0.7234    1.0780 H   0  0  0  0  0  0  0  0  0  0  0  0
   -0.5426   -1.2419    1.2920 H   0  0  0  0  0  0  0  0  0  0  0  0
   -3.0733    1.0431   -0.8662 H   0  0  0  0  0  0  0  0  0  0  0  0
    0.8337   -3.1542    0.5457 H   0  0  0  0  0  0  0  0  0  0  0  0
   -0.8585   -3.4776    0.2239 H   0  0  0  0  0  0  0  0  0  0  0  0
    0.2189   -3.0027   -1.1065 H   0  0  0  0  0  0  0  0  0  0  0  0
   -3.5198    0.2968    1.4373 H   0  0  0  0  0  0  0  0  0  0  0  0
   -1.8425    0.5854    1.9104 H   0  0  0  0  0  0  0  0  0  0  0  0
   -2.8748    1.9344    1.4242 H   0  0  0  0  0  0  0  0  0  0  0  0
  1  4  1  0  0  0  0
  1  9  1  0  0  0  0
  2  8  1  0  0  0  0
  2  9  1  0  0  0  0
  3  4  1  0  0  0  0
  3  6  1  0  0  0  0
  3  8  1  0  0  0  0
  4  5  1  0  0  0  0
  4 12  1  0  0  0  0
  5  7  1  0  0  0  0
  5 13  1  0  0  0  0
  5 14  1  0  0  0  0
  6  7  1  0  0  0  0
  6 15  1  0  0  0  0
  6 16  1  0  0  0  0
  7 17  1  0  0  0  0
  7 18  1  0  0  0  0
  8 10  1  0  0  0  0
  8 19  1  0  0  0  0
  9 11  1  0  0  0  0
  9 20  1  0  0  0  0
 10 21  1  0  0  0  0
 10 22  1  0  0  0  0
 10 23  1  0  0  0  0
 11 24  1  0  0  0  0
 11 25  1  0  0  0  0
 11 26  1  0  0  0  0
M  END
> <PUBCHEM_COMPOUND_CID>
529068

> <PUBCHEM_CONFORMER_RMSD>
0.4

> <PUBCHEM_CONFORMER_DIVERSEORDER>
5
19
15
32
30
33
22
31
21
24
29
4
6
26
25
18
27
28
2
20
12
3
9
8
11
7
17
10
14
16
23
13
1

> <PUBCHEM_MMFF94_PARTIAL_CHARGES>
7
1 -0.46
2 -0.46
3 -0.81
4 0.5
6 0.27
8 0.5
9 0.46

> <PUBCHEM_EFFECTIVE_ROTOR_COUNT>
1.4

> <PUBCHEM_PHARMACOPHORE_FEATURES>
3
1 3 cation
5 3 4 5 6 7 rings
6 1 2 3 4 8 9 rings

> <PUBCHEM_HEAVY_ATOM_COUNT>
11

> <PUBCHEM_ATOM_DEF_STEREO_COUNT>
0

> <PUBCHEM_ATOM_UDEF_STEREO_COUNT>
3

> <PUBCHEM_BOND_DEF_STEREO_COUNT>
0

> <PUBCHEM_BOND_UDEF_STEREO_COUNT>
0

> <PUBCHEM_ISOTOPIC_ATOM_COUNT>
0

> <PUBCHEM_COMPONENT_COUNT>
1

> <PUBCHEM_CACTVS_TAUTO_COUNT>
1

> <PUBCHEM_CONFORMER_ID>
000812AC00000005

> <PUBCHEM_MMFF94_ENERGY>
17.8372

> <PUBCHEM_FEATURE_SELFOVERLAP>
15.27

> <PUBCHEM_SHAPE_FINGERPRINT>
100427 49 16829526047576263007
15775835 57 18411983550611029537
161256 15 17978802207169606535
16945 1 18266736879059829709
17844478 74 17968388857229087657
17990270 104 17759517768621020465
18185500 45 17831576852796322358
193761 8 17329706522919060340
21040471 1 18410570734125036636
21501502 16 18339922748543644452
22802520 49 18198644283250678102
2334 1 18337951302287513575
23402539 116 18127393773359879943
23552423 10 17683516604431621948
23559900 14 18270694164413962188
241688 4 18264476442288614169
2748010 2 18408884061607418159
5084963 1 18271511057374137293
528862 383 18194684761500849595
528886 8 18410003330127031641
63268167 104 18411974737374931513
66348 1 18121776394159624015
81228 2 18050000292394697362

> <PUBCHEM_SHAPE_MULTIPOLES>
229.09
3.65
2.47
0.89
0.58
1.34
-0.1
-1.06
-0.53
-0.18
0.23
-0.49
-0.17
-0.32

> <PUBCHEM_SHAPE_SELFOVERLAP>
430.809

> <PUBCHEM_SHAPE_VOLUME>
142.4

> <PUBCHEM_COORDINATE_TYPE>
2
5
10

$$$$
