529251
  -OEChem-11232108433D

 20 20  0     0  0  0  0  0  0999 V2000
   -1.3964   -1.4342    0.4980 O   0  0  0  0  0  0  0  0  0  0  0  0
    1.2448   -1.0838   -0.3131 N   0  0  0  0  0  0  0  0  0  0  0  0
    1.0027    1.2509    0.1678 C   0  0  0  0  0  0  0  0  0  0  0  0
    2.4477    0.8651    0.3865 C   0  0  0  0  0  0  0  0  0  0  0  0
    0.4392   -0.1136   -0.0181 C   0  0  0  0  0  0  0  0  0  0  0  0
    2.5755   -0.4418   -0.3824 C   0  0  0  0  0  0  0  0  0  0  0  0
   -1.0175   -0.3390    0.0999 C   0  0  0  0  0  0  0  0  0  0  0  0
   -1.9111    0.8181   -0.2845 C   0  0  0  0  0  0  0  0  0  0  0  0
   -3.3849    0.4783   -0.1542 C   0  0  0  0  0  0  0  0  0  0  0  0
    0.8645    1.8374   -0.7447 H   0  0  0  0  0  0  0  0  0  0  0  0
    0.5799    1.7688    1.0308 H   0  0  0  0  0  0  0  0  0  0  0  0
    3.1529    1.6286    0.0468 H   0  0  0  0  0  0  0  0  0  0  0  0
    2.6297    0.6871    1.4538 H   0  0  0  0  0  0  0  0  0  0  0  0
    2.8389   -0.2662   -1.4315 H   0  0  0  0  0  0  0  0  0  0  0  0
    3.3363   -1.0889    0.0645 H   0  0  0  0  0  0  0  0  0  0  0  0
   -1.6925    1.6702    0.3663 H   0  0  0  0  0  0  0  0  0  0  0  0
   -1.6920    1.0954   -1.3210 H   0  0  0  0  0  0  0  0  0  0  0  0
   -3.6358    0.2067    0.8766 H   0  0  0  0  0  0  0  0  0  0  0  0
   -4.0015    1.3351   -0.4426 H   0  0  0  0  0  0  0  0  0  0  0  0
   -3.6510   -0.3673   -0.7969 H   0  0  0  0  0  0  0  0  0  0  0  0
  1  7  2  0  0  0  0
  2  5  2  0  0  0  0
  2  6  1  0  0  0  0
  3  4  1  0  0  0  0
  3  5  1  0  0  0  0
  3 10  1  0  0  0  0
  3 11  1  0  0  0  0
  4  6  1  0  0  0  0
  4 12  1  0  0  0  0
  4 13  1  0  0  0  0
  5  7  1  0  0  0  0
  6 14  1  0  0  0  0
  6 15  1  0  0  0  0
  7  8  1  0  0  0  0
  8  9  1  0  0  0  0
  8 16  1  0  0  0  0
  8 17  1  0  0  0  0
  9 18  1  0  0  0  0
  9 19  1  0  0  0  0
  9 20  1  0  0  0  0
M  END
> <PUBCHEM_COMPOUND_CID>
529251

> <PUBCHEM_CONFORMER_RMSD>
0.6

> <PUBCHEM_CONFORMER_DIVERSEORDER>
1
9
8
10
2
7
4
5
11
3
6
12

> <PUBCHEM_MMFF94_PARTIAL_CHARGES>
7
1 -0.57
2 -0.7
3 0.06
5 0.39
6 0.25
7 0.51
8 0.06

> <PUBCHEM_EFFECTIVE_ROTOR_COUNT>
2.6

> <PUBCHEM_PHARMACOPHORE_FEATURES>
4
1 1 acceptor
1 2 acceptor
1 9 hydrophobe
5 2 3 4 5 6 rings

> <PUBCHEM_HEAVY_ATOM_COUNT>
9

> <PUBCHEM_ATOM_DEF_STEREO_COUNT>
0

> <PUBCHEM_ATOM_UDEF_STEREO_COUNT>
0

> <PUBCHEM_BOND_DEF_STEREO_COUNT>
0

> <PUBCHEM_BOND_UDEF_STEREO_COUNT>
0

> <PUBCHEM_ISOTOPIC_ATOM_COUNT>
0

> <PUBCHEM_COMPONENT_COUNT>
1

> <PUBCHEM_CACTVS_TAUTO_COUNT>
2

> <PUBCHEM_CONFORMER_ID>
0008136300000001

> <PUBCHEM_MMFF94_ENERGY>
7.6498

> <PUBCHEM_FEATURE_SELFOVERLAP>
20.301

> <PUBCHEM_SHAPE_FINGERPRINT>
10857977 72 17530974596316687057
11062470 55 14549012174219890833
12932741 1 18341904016624921470
12932764 1 16443336602766276100
14325111 11 18410291398237296173
14390081 3 18413666920135182841
19973954 147 18337675333490817137
20201158 50 18341895164586535102
21040471 1 18334294253604335260
23235685 24 18410567392445528893
23402655 69 18272360941751366109
23552423 10 18187086212476557238
29004967 10 18272094911255089738
5084963 1 18341048528038519401

> <PUBCHEM_SHAPE_MULTIPOLES>
174.37
4.44
1.29
0.68
1.86
0.07
0
-0.69
-0.27
-0.13
0.09
-0.03
0.01
0.37

> <PUBCHEM_SHAPE_SELFOVERLAP>
345.666

> <PUBCHEM_SHAPE_VOLUME>
106

> <PUBCHEM_COORDINATE_TYPE>
2
5
10

$$$$
