529388
  -OEChem-11232109443D

 24 23  0     0  0  0  0  0  0999 V2000
   -0.6521   -0.3510   -0.0238 S   0  0  0  0  0  0  0  0  0  0  0  0
    0.9646    0.9912   -0.0452 S   0  0  0  0  0  0  0  0  0  0  0  0
   -0.6277   -1.0311    1.2599 O   0  0  0  0  0  0  0  0  0  0  0  0
   -0.5957   -1.1099   -1.2614 O   0  0  0  0  0  0  0  0  0  0  0  0
   -2.1052    0.6488   -0.0735 C   0  0  0  0  0  0  0  0  0  0  0  0
   -3.3616   -0.1928    0.0771 C   0  0  0  0  0  0  0  0  0  0  0  0
    2.3967   -0.1069    0.0072 C   0  0  0  0  0  0  0  0  0  0  0  0
    3.6898    0.7006   -0.0015 C   0  0  0  0  0  0  0  0  0  0  0  0
   -4.6152    0.6636    0.0148 C   0  0  0  0  0  0  0  0  0  0  0  0
    4.9063   -0.2124    0.0465 C   0  0  0  0  0  0  0  0  0  0  0  0
   -2.1046    1.1880   -1.0262 H   0  0  0  0  0  0  0  0  0  0  0  0
   -2.0340    1.3733    0.7443 H   0  0  0  0  0  0  0  0  0  0  0  0
   -3.4042   -0.9509   -0.7137 H   0  0  0  0  0  0  0  0  0  0  0  0
   -3.3442   -0.7332    1.0306 H   0  0  0  0  0  0  0  0  0  0  0  0
    2.3614   -0.7767   -0.8583 H   0  0  0  0  0  0  0  0  0  0  0  0
    2.3387   -0.7210    0.9118 H   0  0  0  0  0  0  0  0  0  0  0  0
    3.7491    1.3179   -0.9062 H   0  0  0  0  0  0  0  0  0  0  0  0
    3.7242    1.3772    0.8611 H   0  0  0  0  0  0  0  0  0  0  0  0
   -5.5071    0.0389    0.1250 H   0  0  0  0  0  0  0  0  0  0  0  0
   -4.6213    1.4090    0.8165 H   0  0  0  0  0  0  0  0  0  0  0  0
   -4.6846    1.1885   -0.9434 H   0  0  0  0  0  0  0  0  0  0  0  0
    4.9280   -0.8828   -0.8185 H   0  0  0  0  0  0  0  0  0  0  0  0
    5.8259    0.3811    0.0395 H   0  0  0  0  0  0  0  0  0  0  0  0
    4.9030   -0.8229    0.9552 H   0  0  0  0  0  0  0  0  0  0  0  0
  1  2  1  0  0  0  0
  1  3  2  0  0  0  0
  1  4  2  0  0  0  0
  1  5  1  0  0  0  0
  2  7  1  0  0  0  0
  5  6  1  0  0  0  0
  5 11  1  0  0  0  0
  5 12  1  0  0  0  0
  6  9  1  0  0  0  0
  6 13  1  0  0  0  0
  6 14  1  0  0  0  0
  7  8  1  0  0  0  0
  7 15  1  0  0  0  0
  7 16  1  0  0  0  0
  8 10  1  0  0  0  0
  8 17  1  0  0  0  0
  8 18  1  0  0  0  0
  9 19  1  0  0  0  0
  9 20  1  0  0  0  0
  9 21  1  0  0  0  0
 10 22  1  0  0  0  0
 10 23  1  0  0  0  0
 10 24  1  0  0  0  0
M  END
> <PUBCHEM_COMPOUND_CID>
529388

> <PUBCHEM_CONFORMER_RMSD>
0.6

> <PUBCHEM_CONFORMER_DIVERSEORDER>
1
95
51
26
4
126
74
3
56
46
115
41
48
109
7
90
88
5
110
65
44
68
76
43
82
57
2
120
99
62
124
25
81
38
29
22
105
89
8
87
9
73
96
121
78
53
14
45
93
80
21
35
108
17
54
83
6
112
102
16
11
40
55
113
106
47
30
104
18
49
107
71
31
70
79
125
50
94
86
119
58
52
122
32
27
33
92
111
28
67
72
20
36
15
114
97
63
42
98
85
13
123
66
100
23
103
19
12
77
24
37
59
34
64
118
117
75
101
10
84
116
39
91
61
60
69

> <PUBCHEM_MMFF94_PARTIAL_CHARGES>
6
1 1.31
2 -0.35
3 -0.65
4 -0.65
5 0.11
7 0.23

> <PUBCHEM_EFFECTIVE_ROTOR_COUNT>
5

> <PUBCHEM_PHARMACOPHORE_FEATURES>
2
1 10 hydrophobe
1 9 hydrophobe

> <PUBCHEM_HEAVY_ATOM_COUNT>
10

> <PUBCHEM_ATOM_DEF_STEREO_COUNT>
0

> <PUBCHEM_ATOM_UDEF_STEREO_COUNT>
0

> <PUBCHEM_BOND_DEF_STEREO_COUNT>
0

> <PUBCHEM_BOND_UDEF_STEREO_COUNT>
0

> <PUBCHEM_ISOTOPIC_ATOM_COUNT>
0

> <PUBCHEM_COMPONENT_COUNT>
1

> <PUBCHEM_CACTVS_TAUTO_COUNT>
1

> <PUBCHEM_CONFORMER_ID>
000813EC00000001

> <PUBCHEM_MMFF94_ENERGY>
-2.2369

> <PUBCHEM_FEATURE_SELFOVERLAP>
10.149

> <PUBCHEM_SHAPE_FINGERPRINT>
11062470 55 15626224623784341080
12932764 1 15575262307651282412
14123238 8 18060699502552657116
14943859 89 18411698802763497562
17834076 25 16272208600514242560
18342897 14 18334294257973506361
18511873 20 18335421296014904052
187816 3 15769776857569506387
20719005 15 18409448085703648360
21119208 17 17775284967047540548
21293036 1 16774079574367567027
23402539 116 17346874542357115885
265663 24 18411416224233503287
3248919 1 15913060862743060036
366044 4 18272368672265016351
42788 4 18410012134957798312

> <PUBCHEM_SHAPE_MULTIPOLES>
201.76
9.04
1.06
0.85
2.75
0
-0.01
1.34
0.23
-0.09
-0.01
-0.14
-0.24
0

> <PUBCHEM_SHAPE_SELFOVERLAP>
338.768

> <PUBCHEM_SHAPE_VOLUME>
138

> <PUBCHEM_COORDINATE_TYPE>
2
5
10

$$$$
