529300
  -OEChem-11232109443D

 35 34  0     1  0  0  0  0  0999 V2000
   -1.5760    1.3606    0.5537 O   0  0  0  0  0  0  0  0  0  0  0  0
   -0.6313   -2.6836   -0.6673 O   0  0  0  0  0  0  0  0  0  0  0  0
   -1.4020   -1.4487    1.1212 O   0  0  0  0  0  0  0  0  0  0  0  0
   -3.0369    1.7926   -1.1828 O   0  0  0  0  0  0  0  0  0  0  0  0
    0.7914    0.9444    0.4615 C   0  0  0  0  0  0  0  0  0  0  0  0
    2.0171    0.6505   -0.4040 C   0  0  0  0  0  0  0  0  0  0  0  0
   -0.5269    0.9491   -0.3235 C   0  0  1  0  0  0  0  0  0  0  0  0
    3.3022    0.6844    0.4264 C   0  0  0  0  0  0  0  0  0  0  0  0
   -0.9104   -0.3711   -0.9988 C   0  0  0  0  0  0  0  0  0  0  0  0
    4.5325    0.4225   -0.4418 C   0  0  0  0  0  0  0  0  0  0  0  0
    5.8081    0.4226    0.3854 C   0  0  0  0  0  0  0  0  0  0  0  0
   -1.0315   -1.5383   -0.0417 C   0  0  0  0  0  0  0  0  0  0  0  0
   -2.8076    1.4878   -0.0203 C   0  0  0  0  0  0  0  0  0  0  0  0
   -3.8697    1.1947    0.9956 C   0  0  0  0  0  0  0  0  0  0  0  0
   -0.6592   -3.8674    0.1365 C   0  0  0  0  0  0  0  0  0  0  0  0
    0.9123    1.9239    0.9431 H   0  0  0  0  0  0  0  0  0  0  0  0
    0.7332    0.2258    1.2881 H   0  0  0  0  0  0  0  0  0  0  0  0
    2.0800    1.3873   -1.2135 H   0  0  0  0  0  0  0  0  0  0  0  0
    1.9241   -0.3376   -0.8679 H   0  0  0  0  0  0  0  0  0  0  0  0
   -0.4329    1.7169   -1.1039 H   0  0  0  0  0  0  0  0  0  0  0  0
    3.4004    1.6617    0.9145 H   0  0  0  0  0  0  0  0  0  0  0  0
    3.2444   -0.0694    1.2212 H   0  0  0  0  0  0  0  0  0  0  0  0
   -1.8590   -0.3169   -1.5408 H   0  0  0  0  0  0  0  0  0  0  0  0
   -0.1448   -0.6139   -1.7453 H   0  0  0  0  0  0  0  0  0  0  0  0
    4.6081    1.1890   -1.2217 H   0  0  0  0  0  0  0  0  0  0  0  0
    4.4331   -0.5455   -0.9467 H   0  0  0  0  0  0  0  0  0  0  0  0
    6.6753    0.2346   -0.2553 H   0  0  0  0  0  0  0  0  0  0  0  0
    5.7779   -0.3567    1.1534 H   0  0  0  0  0  0  0  0  0  0  0  0
    5.9543    1.3880    0.8804 H   0  0  0  0  0  0  0  0  0  0  0  0
   -3.7581    1.8628    1.8533 H   0  0  0  0  0  0  0  0  0  0  0  0
   -3.8056    0.1504    1.3100 H   0  0  0  0  0  0  0  0  0  0  0  0
   -4.8538    1.3667    0.5503 H   0  0  0  0  0  0  0  0  0  0  0  0
   -0.3192   -4.7044   -0.4791 H   0  0  0  0  0  0  0  0  0  0  0  0
   -1.6795   -4.0717    0.4746 H   0  0  0  0  0  0  0  0  0  0  0  0
    0.0175   -3.7613    0.9898 H   0  0  0  0  0  0  0  0  0  0  0  0
  1  7  1  0  0  0  0
  1 13  1  0  0  0  0
  2 12  1  0  0  0  0
  2 15  1  0  0  0  0
  3 12  2  0  0  0  0
  4 13  2  0  0  0  0
  5  6  1  0  0  0  0
  5  7  1  0  0  0  0
  5 16  1  0  0  0  0
  5 17  1  0  0  0  0
  6  8  1  0  0  0  0
  6 18  1  0  0  0  0
  6 19  1  0  0  0  0
  7  9  1  0  0  0  0
  7 20  1  0  0  0  0
  8 10  1  0  0  0  0
  8 21  1  0  0  0  0
  8 22  1  0  0  0  0
  9 12  1  0  0  0  0
  9 23  1  0  0  0  0
  9 24  1  0  0  0  0
 10 11  1  0  0  0  0
 10 25  1  0  0  0  0
 10 26  1  0  0  0  0
 11 27  1  0  0  0  0
 11 28  1  0  0  0  0
 11 29  1  0  0  0  0
 13 14  1  0  0  0  0
 14 30  1  0  0  0  0
 14 31  1  0  0  0  0
 14 32  1  0  0  0  0
 15 33  1  0  0  0  0
 15 34  1  0  0  0  0
 15 35  1  0  0  0  0
M  END
> <PUBCHEM_COMPOUND_CID>
529300

> <PUBCHEM_CONFORMER_RMSD>
0.8

> <PUBCHEM_CONFORMER_DIVERSEORDER>
3
212
448
468
365
443
263
383
429
154
179
143
450
119
477
457
430
227
403
482
178
439
399
341
252
465
435
18
188
210
96
176
311
415
436
177
444
258
129
461
244
80
31
458
453
424
432
276
74
338
471
402
390
487
271
261
169
128
191
25
397
238
164
288
225
255
408
142
481
428
250
198
358
33
331
59
348
217
376
211
475
330
407
168
377
126
483
246
11
449
149
322
13
412
216
382
294
214
153
249
425
63
387
253
290
486
109
360
426
480
163
22
315
30
16
231
309
406
147
452
374
260
265
293
352
459
58
469
160
373
156
393
204
343
326
181
396
371
2
438
349
299
421
434
52
310
451
427
235
139
222
220
410
215
355
302
14
404
433
277
411
251
386
186
221
395
384
4
180
281
197
144
305
84
350
370
61
29
312
334
10
467
489
187
140
7
234
145
420
175
17
98
479
339
184
460
292
470
431
462
43
345
478
340
112
267
226
442
463
182
391
323
378
306
170
12
275
327
285
192
67
324
307
118
317
418
394
300
135
257
388
447
440
297
320
454
123
99
474
79
392
488
266
162
72
336
46
55
335
456
133
134
203
195
363
207
78
274
202
332
21
437
161
289
50
218
280
27
248
364
51
313
15
484
97
245
69
389
86
53
194
232
303
32
287
409
193
283
137
146
77
85
206
87
379
70
441
66
273
5
92
114
201
472
28
400
1
445
73
37
414
106
200
183
422
124
344
190
8
354
286
49
95
34
256
278
242
473
24
361
117
107
199
35
405
165
262
401
264
121
152
416
64
419
39
272
268
347
54
88
136
233
239
224
455
171
359
90
367
366
205
108
228
368
381
23
279
417
282
240
45
356
166
375
83
464
19
466
269
151
42
167
57
127
362
158
105
185
148
60
155
130
40
44
247
26
236
398
93
89
259
308
485
254
333
104
230
369
125
150
325
446
159
141
132
113
172
213
62
318
209
380
270
223
115
131
6
111
346
116
321
82
342
237
229
122
110
138
208
351
20
423
94
36
243
41
174
103
75
284
91
353
120
157
38
102
81
316
301
9
196
68
298
319
296
357
48
101
304
413
47
476
189
295
71
372
291
314
337
65
56
219
385
328
76
329
241
100
173

> <PUBCHEM_MMFF94_PARTIAL_CHARGES>
10
1 -0.43
12 0.66
13 0.66
14 0.06
15 0.28
2 -0.43
3 -0.57
4 -0.57
7 0.28
9 0.06

> <PUBCHEM_EFFECTIVE_ROTOR_COUNT>
9

> <PUBCHEM_PHARMACOPHORE_FEATURES>
4
1 11 hydrophobe
1 3 acceptor
1 4 acceptor
4 5 6 8 10 hydrophobe

> <PUBCHEM_HEAVY_ATOM_COUNT>
15

> <PUBCHEM_ATOM_DEF_STEREO_COUNT>
0

> <PUBCHEM_ATOM_UDEF_STEREO_COUNT>
1

> <PUBCHEM_BOND_DEF_STEREO_COUNT>
0

> <PUBCHEM_BOND_UDEF_STEREO_COUNT>
0

> <PUBCHEM_ISOTOPIC_ATOM_COUNT>
0

> <PUBCHEM_COMPONENT_COUNT>
1

> <PUBCHEM_CACTVS_TAUTO_COUNT>
1

> <PUBCHEM_CONFORMER_ID>
0008139400000003

> <PUBCHEM_MMFF94_ENERGY>
16.7114

> <PUBCHEM_FEATURE_SELFOVERLAP>
20.298

> <PUBCHEM_SHAPE_FINGERPRINT>
10922049 32 18341337703870356345
12500047 106 18411694396739059376
13380535 76 18272933795677384140
14965852 173 18338233898831235988
15279307 12 18260542312739043458
15375358 24 17989205937206600908
167882 2 17974839584432538462
200 152 11383828260185021856
20279233 1 17561368383606473084
20524608 308 18339921614408501686
20645476 183 18333443240394896308
20645477 56 18410011040115957132
21665056 4 18410289233304890134
22224240 67 18343028783409634153
2306618 200 12463581655419439770
23402539 116 18202276979074194524
23419403 2 17482881875913251215
23559900 14 18273213106808540752
23598288 3 18042701665558296910
23598291 2 17531816869362754692
23728640 28 18410011074143321410
257057 1 17620753224822078327
3250762 1 17840012276135625593
366044 4 18412826858923472113
474229 33 18409169918067949049
53777708 50 18046350996723762892
559249 180 18261101951494212514
58051976 100 18260554450253227244
633830 44 17914903036660048973
81228 2 18051397771958073441
81539 233 18191021201636857069

> <PUBCHEM_SHAPE_MULTIPOLES>
285.22
8.18
3.07
0.98
13.56
4.63
0.03
-4.7
-1.12
-2.97
0
-0.49
-0.1
0.11

> <PUBCHEM_SHAPE_SELFOVERLAP>
536.191

> <PUBCHEM_SHAPE_VOLUME>
177.2

> <PUBCHEM_COORDINATE_TYPE>
2
5
10

$$$$
