529346
  -OEChem-11232109263D

 24 24  0     0  0  0  0  0  0999 V2000
    1.6096    1.3208    0.0179 N   0  0  0  0  0  0  0  0  0  0  0  0
    1.4322    0.0103    0.2982 C   0  0  0  0  0  0  0  0  0  0  0  0
    2.6601   -0.7760    0.6168 C   0  0  0  0  0  0  0  0  0  0  0  0
   -0.9240    0.1403    0.0026 C   0  0  0  0  0  0  0  0  0  0  0  0
    0.1992   -0.6217    0.3042 C   0  0  0  0  0  0  0  0  0  0  0  0
   -2.2424   -0.4733   -0.0042 C   0  0  0  0  0  0  0  0  0  0  0  0
   -0.7819    1.4920   -0.2913 C   0  0  0  0  0  0  0  0  0  0  0  0
    3.2910   -1.3949   -0.6274 C   0  0  0  0  0  0  0  0  0  0  0  0
    0.4950    2.0294   -0.2703 C   0  0  0  0  0  0  0  0  0  0  0  0
   -2.3677   -1.9465   -0.3495 C   0  0  0  0  0  0  0  0  0  0  0  0
   -3.3712    0.2196    0.3029 C   0  0  0  0  0  0  0  0  0  0  0  0
    3.3940   -0.1188    1.0994 H   0  0  0  0  0  0  0  0  0  0  0  0
    2.4314   -1.5624    1.3463 H   0  0  0  0  0  0  0  0  0  0  0  0
    0.1351   -1.6771    0.5474 H   0  0  0  0  0  0  0  0  0  0  0  0
   -1.6155    2.1340   -0.5545 H   0  0  0  0  0  0  0  0  0  0  0  0
    2.5996   -2.0879   -1.1184 H   0  0  0  0  0  0  0  0  0  0  0  0
    4.1950   -1.9497   -0.3571 H   0  0  0  0  0  0  0  0  0  0  0  0
    3.5680   -0.6241   -1.3545 H   0  0  0  0  0  0  0  0  0  0  0  0
    0.6607    3.0775   -0.4973 H   0  0  0  0  0  0  0  0  0  0  0  0
   -1.9888   -2.5720    0.4653 H   0  0  0  0  0  0  0  0  0  0  0  0
   -1.8128   -2.1773   -1.2655 H   0  0  0  0  0  0  0  0  0  0  0  0
   -3.4098   -2.2359   -0.5260 H   0  0  0  0  0  0  0  0  0  0  0  0
   -4.3418   -0.2674    0.2949 H   0  0  0  0  0  0  0  0  0  0  0  0
   -3.3639    1.2656    0.5889 H   0  0  0  0  0  0  0  0  0  0  0  0
  1  2  2  0  0  0  0
  1  9  1  0  0  0  0
  2  3  1  0  0  0  0
  2  5  1  0  0  0  0
  3  8  1  0  0  0  0
  3 12  1  0  0  0  0
  3 13  1  0  0  0  0
  4  5  2  0  0  0  0
  4  6  1  0  0  0  0
  4  7  1  0  0  0  0
  5 14  1  0  0  0  0
  6 10  1  0  0  0  0
  6 11  2  0  0  0  0
  7  9  2  0  0  0  0
  7 15  1  0  0  0  0
  8 16  1  0  0  0  0
  8 17  1  0  0  0  0
  8 18  1  0  0  0  0
  9 19  1  0  0  0  0
 10 20  1  0  0  0  0
 10 21  1  0  0  0  0
 10 22  1  0  0  0  0
 11 23  1  0  0  0  0
 11 24  1  0  0  0  0
M  END
> <PUBCHEM_COMPOUND_CID>
529346

> <PUBCHEM_CONFORMER_RMSD>
0.4

> <PUBCHEM_CONFORMER_DIVERSEORDER>
1
4
11
9
10
8
6
7
5
12
2
3

> <PUBCHEM_MMFF94_PARTIAL_CHARGES>
15
1 -0.62
10 0.14
11 -0.3
14 0.15
15 0.15
19 0.15
2 0.17
23 0.15
24 0.15
3 0.14
4 0.03
5 -0.15
6 -0.17
7 -0.15
9 0.16

> <PUBCHEM_EFFECTIVE_ROTOR_COUNT>
2

> <PUBCHEM_PHARMACOPHORE_FEATURES>
3
1 1 acceptor
1 8 hydrophobe
6 1 2 4 5 7 9 rings

> <PUBCHEM_HEAVY_ATOM_COUNT>
11

> <PUBCHEM_ATOM_DEF_STEREO_COUNT>
0

> <PUBCHEM_ATOM_UDEF_STEREO_COUNT>
0

> <PUBCHEM_BOND_DEF_STEREO_COUNT>
0

> <PUBCHEM_BOND_UDEF_STEREO_COUNT>
0

> <PUBCHEM_ISOTOPIC_ATOM_COUNT>
0

> <PUBCHEM_COMPONENT_COUNT>
1

> <PUBCHEM_CACTVS_TAUTO_COUNT>
2

> <PUBCHEM_CONFORMER_ID>
000813C200000001

> <PUBCHEM_MMFF94_ENERGY>
28.0373

> <PUBCHEM_FEATURE_SELFOVERLAP>
15.223

> <PUBCHEM_SHAPE_FINGERPRINT>
10353120 184 18114463374824842438
11206711 2 18042117674375508940
11769659 78 18201432614352336167
12032990 46 18408328769802452507
12932764 1 17531516650979913171
14128692 85 18409451401149291132
161256 15 18408036325526896428
16945 1 18337099064848825881
17990270 104 18265613362860018195
18511873 20 18413111637025198849
20281407 28 18341333305860937498
20645477 70 18192702578513066999
207724 885 18410860949502554707
20871998 184 18198337351781062910
20871998 22 18411700971996418450
21501925 9 18267007530750778475
23552423 10 18189333640023948287
23559900 14 18124306105219706962
2748010 2 18335691788823457925
449060 23 18412825759401385846
7364860 26 18198624526248330232

> <PUBCHEM_SHAPE_MULTIPOLES>
221.39
4.85
1.97
0.73
0.23
0.33
0
-2.42
-0.05
0.03
-0.35
0.16
-0.08
-0.01

> <PUBCHEM_SHAPE_SELFOVERLAP>
450.58

> <PUBCHEM_SHAPE_VOLUME>
129.6

> <PUBCHEM_COORDINATE_TYPE>
2
5
10

$$$$
