529497
  -OEChem-11232108493D

 32 31  0     1  0  0  0  0  0999 V2000
   -0.2794   -0.0077    0.2878 O   0  0  0  0  0  0  0  0  0  0  0  0
    1.2007   -1.7028    0.7932 O   0  0  0  0  0  0  0  0  0  0  0  0
   -1.2565   -0.9767   -0.1056 C   0  0  1  0  0  0  0  0  0  0  0  0
   -2.5418   -0.2758   -0.5571 C   0  0  0  0  0  0  0  0  0  0  0  0
    2.7483    1.0971    0.0052 C   0  0  0  0  0  0  0  0  0  0  0  0
    1.8154    0.6270    1.1320 C   0  0  0  0  0  0  0  0  0  0  0  0
   -3.1203    0.6266    0.5362 C   0  0  0  0  0  0  0  0  0  0  0  0
   -0.6701   -1.8380   -1.2161 C   0  0  0  0  0  0  0  0  0  0  0  0
    0.9128   -0.5161    0.7195 C   0  0  0  0  0  0  0  0  0  0  0  0
    3.6363   -0.0435   -0.4987 C   0  0  0  0  0  0  0  0  0  0  0  0
    1.9258    1.6627   -1.1542 C   0  0  0  0  0  0  0  0  0  0  0  0
   -4.3712    1.3471    0.0579 C   0  0  0  0  0  0  0  0  0  0  0  0
   -1.4970   -1.6063    0.7610 H   0  0  0  0  0  0  0  0  0  0  0  0
   -3.2890   -1.0209   -0.8556 H   0  0  0  0  0  0  0  0  0  0  0  0
   -2.3235    0.3427   -1.4372 H   0  0  0  0  0  0  0  0  0  0  0  0
    3.3897    1.8930    0.4024 H   0  0  0  0  0  0  0  0  0  0  0  0
    1.2024    1.4573    1.5038 H   0  0  0  0  0  0  0  0  0  0  0  0
    2.4027    0.2841    1.9928 H   0  0  0  0  0  0  0  0  0  0  0  0
   -2.3815    1.3751    0.8441 H   0  0  0  0  0  0  0  0  0  0  0  0
   -3.3636    0.0271    1.4210 H   0  0  0  0  0  0  0  0  0  0  0  0
   -0.0910   -1.2401   -1.9282 H   0  0  0  0  0  0  0  0  0  0  0  0
   -0.0229   -2.6372   -0.8468 H   0  0  0  0  0  0  0  0  0  0  0  0
   -1.4677   -2.3462   -1.7703 H   0  0  0  0  0  0  0  0  0  0  0  0
    3.0597   -0.8277   -0.9999 H   0  0  0  0  0  0  0  0  0  0  0  0
    4.3682    0.3363   -1.2200 H   0  0  0  0  0  0  0  0  0  0  0  0
    4.1906   -0.4993    0.3284 H   0  0  0  0  0  0  0  0  0  0  0  0
    1.3406    0.8915   -1.6645 H   0  0  0  0  0  0  0  0  0  0  0  0
    1.2401    2.4423   -0.8057 H   0  0  0  0  0  0  0  0  0  0  0  0
    2.5876    2.1154   -1.9009 H   0  0  0  0  0  0  0  0  0  0  0  0
   -4.7706    1.9824    0.8546 H   0  0  0  0  0  0  0  0  0  0  0  0
   -5.1494    0.6328   -0.2293 H   0  0  0  0  0  0  0  0  0  0  0  0
   -4.1519    1.9829   -0.8059 H   0  0  0  0  0  0  0  0  0  0  0  0
  1  3  1  0  0  0  0
  1  9  1  0  0  0  0
  2  9  2  0  0  0  0
  3  4  1  0  0  0  0
  3  8  1  0  0  0  0
  3 13  1  0  0  0  0
  4  7  1  0  0  0  0
  4 14  1  0  0  0  0
  4 15  1  0  0  0  0
  5  6  1  0  0  0  0
  5 10  1  0  0  0  0
  5 11  1  0  0  0  0
  5 16  1  0  0  0  0
  6  9  1  0  0  0  0
  6 17  1  0  0  0  0
  6 18  1  0  0  0  0
  7 12  1  0  0  0  0
  7 19  1  0  0  0  0
  7 20  1  0  0  0  0
  8 21  1  0  0  0  0
  8 22  1  0  0  0  0
  8 23  1  0  0  0  0
 10 24  1  0  0  0  0
 10 25  1  0  0  0  0
 10 26  1  0  0  0  0
 11 27  1  0  0  0  0
 11 28  1  0  0  0  0
 11 29  1  0  0  0  0
 12 30  1  0  0  0  0
 12 31  1  0  0  0  0
 12 32  1  0  0  0  0
M  END
> <PUBCHEM_COMPOUND_CID>
529497

> <PUBCHEM_CONFORMER_RMSD>
0.6

> <PUBCHEM_CONFORMER_DIVERSEORDER>
4
115
160
25
23
177
81
180
29
156
143
109
131
30
165
43
67
95
135
181
154
133
120
144
189
52
75
193
116
98
37
130
14
91
174
57
171
185
53
34
76
10
12
194
155
113
190
183
142
157
45
39
27
58
188
125
96
172
184
117
64
139
169
158
62
162
83
107
66
71
148
70
153
129
159
99
82
167
49
111
168
103
80
110
149
137
47
192
8
128
141
32
182
127
55
163
121
126
9
118
92
16
145
164
63
3
88
147
124
42
161
13
38
104
136
112
140
100
176
28
15
170
151
74
191
97
78
56
175
85
22
17
11
31
36
173
61
65
90
152
108
187
134
59
84
18
54
138
105
94
7
48
93
119
79
123
68
146
106
122
1
40
2
51
132
89
87
178
20
186
46
72
69
166
114
33
50
44
60
101
35
41
86
102
179
26
73
21
6
19
24
77
150
5

> <PUBCHEM_MMFF94_PARTIAL_CHARGES>
5
1 -0.43
2 -0.57
3 0.28
6 0.06
9 0.66

> <PUBCHEM_EFFECTIVE_ROTOR_COUNT>
6

> <PUBCHEM_PHARMACOPHORE_FEATURES>
3
1 12 hydrophobe
1 2 acceptor
3 5 10 11 hydrophobe

> <PUBCHEM_HEAVY_ATOM_COUNT>
12

> <PUBCHEM_ATOM_DEF_STEREO_COUNT>
0

> <PUBCHEM_ATOM_UDEF_STEREO_COUNT>
1

> <PUBCHEM_BOND_DEF_STEREO_COUNT>
0

> <PUBCHEM_BOND_UDEF_STEREO_COUNT>
0

> <PUBCHEM_ISOTOPIC_ATOM_COUNT>
0

> <PUBCHEM_COMPONENT_COUNT>
1

> <PUBCHEM_CACTVS_TAUTO_COUNT>
1

> <PUBCHEM_CONFORMER_ID>
0008145900000004

> <PUBCHEM_MMFF94_ENERGY>
12.8293

> <PUBCHEM_FEATURE_SELFOVERLAP>
15.223

> <PUBCHEM_SHAPE_FINGERPRINT>
10149128 111 18410014334155211665
10857977 72 13406786740260959495
11031198 65 17894916217585504698
12500047 106 17917426592334599108
12716758 59 17845651589553694754
12932764 1 16009295617426006522
13380535 21 18335422369888882827
13549 16 18059585667525291326
13705890 14 13542452181540640813
14252887 29 11963396202199236937
15207287 21 14764629698819616244
15375462 189 9223227473004442149
15775835 57 18412261740043279833
17357990 137 18114732858627610552
17834072 14 12247681530588004430
17834072 8 18272098158355828374
17844478 74 14851874868183086780
18186145 218 18187925122869134868
18511873 20 18411702101715138308
20201158 50 15051745204472039996
20233049 118 18131067104300890096
20645476 183 18412543232247475519
20645477 56 17916299618253565393
20653085 51 18337961210872011048
20711983 171 18340490057498481389
21524375 3 18342175553464021007
22218785 32 17846779594316006311
22959321 28 17313095354591766597
231179 274 18260266304875859789
23402539 116 17561357370629954252
23557571 272 17415557876806001176
25 1 18186523206925925034
449060 62 18337955589245435569
4990 188 16559032684193339509
9882013 296 14490197128323375069

> <PUBCHEM_SHAPE_MULTIPOLES>
235.22
6.47
1.77
1.12
3.76
0.34
-0.08
-3.42
-0.39
0.19
-0.38
-0.42
0.04
-0.59

> <PUBCHEM_SHAPE_SELFOVERLAP>
435.326

> <PUBCHEM_SHAPE_VOLUME>
148.8

> <PUBCHEM_COORDINATE_TYPE>
2
5
10

$$$$
