529438
  -OEChem-11232108563D

 39 41  0     1  0  0  0  0  0999 V2000
   -3.2877   -0.1290    0.7105 O   0  0  0  0  0  0  0  0  0  0  0  0
    0.2404    0.9231    0.3063 C   0  0  2  0  0  0  0  0  0  0  0  0
    0.3786   -0.4002    1.0974 C   0  0  1  0  0  0  0  0  0  0  0  0
   -1.2216    0.9450   -0.2146 C   0  0  2  0  0  0  0  0  0  0  0  0
   -1.0019   -1.0786    1.0026 C   0  0  1  0  0  0  0  0  0  0  0  0
   -1.9193    0.1560    0.9177 C   0  0  2  0  0  0  0  0  0  0  0  0
    1.4168    0.9689   -0.6677 C   0  0  0  0  0  0  0  0  0  0  0  0
    1.6361   -1.0909    0.5747 C   0  0  0  0  0  0  0  0  0  0  0  0
    2.4816    0.0500   -0.0312 C   0  0  0  0  0  0  0  0  0  0  0  0
   -1.4589    0.2056   -1.5562 C   0  0  0  0  0  0  0  0  0  0  0  0
   -1.2264   -1.9767   -0.2254 C   0  0  0  0  0  0  0  0  0  0  0  0
   -1.0148   -1.2599   -1.5601 C   0  0  0  0  0  0  0  0  0  0  0  0
   -1.7552    2.3746   -0.3311 C   0  0  0  0  0  0  0  0  0  0  0  0
    3.2727    0.7921    1.0600 C   0  0  0  0  0  0  0  0  0  0  0  0
    3.4596   -0.4800   -1.0830 C   0  0  0  0  0  0  0  0  0  0  0  0
    0.3700    1.7458    1.0253 H   0  0  0  0  0  0  0  0  0  0  0  0
    0.5478   -0.1403    2.1528 H   0  0  0  0  0  0  0  0  0  0  0  0
   -1.2161   -1.6649    1.9033 H   0  0  0  0  0  0  0  0  0  0  0  0
   -1.8638    0.7176    1.8601 H   0  0  0  0  0  0  0  0  0  0  0  0
    1.1482    0.6069   -1.6625 H   0  0  0  0  0  0  0  0  0  0  0  0
    1.7804    1.9944   -0.7990 H   0  0  0  0  0  0  0  0  0  0  0  0
    2.1640   -1.6123    1.3813 H   0  0  0  0  0  0  0  0  0  0  0  0
    1.4136   -1.8437   -0.1846 H   0  0  0  0  0  0  0  0  0  0  0  0
   -0.9590    0.7333   -2.3781 H   0  0  0  0  0  0  0  0  0  0  0  0
   -2.5264    0.2424   -1.8104 H   0  0  0  0  0  0  0  0  0  0  0  0
   -2.2475   -2.3768   -0.1964 H   0  0  0  0  0  0  0  0  0  0  0  0
   -0.5760   -2.8578   -0.1758 H   0  0  0  0  0  0  0  0  0  0  0  0
    0.0419   -1.3156   -1.8378 H   0  0  0  0  0  0  0  0  0  0  0  0
   -1.5432   -1.8010   -2.3545 H   0  0  0  0  0  0  0  0  0  0  0  0
   -1.6707    2.9115    0.6202 H   0  0  0  0  0  0  0  0  0  0  0  0
   -1.1951    2.9398   -1.0839 H   0  0  0  0  0  0  0  0  0  0  0  0
   -2.8121    2.3828   -0.6191 H   0  0  0  0  0  0  0  0  0  0  0  0
    2.6239    1.1932    1.8452 H   0  0  0  0  0  0  0  0  0  0  0  0
    3.9949    0.1232    1.5414 H   0  0  0  0  0  0  0  0  0  0  0  0
    3.8306    1.6333    0.6336 H   0  0  0  0  0  0  0  0  0  0  0  0
    4.0200    0.3391   -1.5471 H   0  0  0  0  0  0  0  0  0  0  0  0
    4.1806   -1.1731   -0.6357 H   0  0  0  0  0  0  0  0  0  0  0  0
    2.9359   -1.0171   -1.8817 H   0  0  0  0  0  0  0  0  0  0  0  0
   -3.4033   -0.6184   -0.1181 H   0  0  0  0  0  0  0  0  0  0  0  0
  1  6  1  0  0  0  0
  1 39  1  0  0  0  0
  2  3  1  0  0  0  0
  2  4  1  0  0  0  0
  2  7  1  0  0  0  0
  2 16  1  0  0  0  0
  3  5  1  0  0  0  0
  3  8  1  0  0  0  0
  3 17  1  0  0  0  0
  4  6  1  0  0  0  0
  4 10  1  0  0  0  0
  4 13  1  0  0  0  0
  5  6  1  0  0  0  0
  5 11  1  0  0  0  0
  5 18  1  0  0  0  0
  6 19  1  0  0  0  0
  7  9  1  0  0  0  0
  7 20  1  0  0  0  0
  7 21  1  0  0  0  0
  8  9  1  0  0  0  0
  8 22  1  0  0  0  0
  8 23  1  0  0  0  0
  9 14  1  0  0  0  0
  9 15  1  0  0  0  0
 10 12  1  0  0  0  0
 10 24  1  0  0  0  0
 10 25  1  0  0  0  0
 11 12  1  0  0  0  0
 11 26  1  0  0  0  0
 11 27  1  0  0  0  0
 12 28  1  0  0  0  0
 12 29  1  0  0  0  0
 13 30  1  0  0  0  0
 13 31  1  0  0  0  0
 13 32  1  0  0  0  0
 14 33  1  0  0  0  0
 14 34  1  0  0  0  0
 14 35  1  0  0  0  0
 15 36  1  0  0  0  0
 15 37  1  0  0  0  0
 15 38  1  0  0  0  0
M  END
> <PUBCHEM_COMPOUND_CID>
529438

> <PUBCHEM_CONFORMER_RMSD>
0.6

> <PUBCHEM_CONFORMER_DIVERSEORDER>
1
3
5
7
6
2
4

> <PUBCHEM_MMFF94_PARTIAL_CHARGES>
3
1 -0.68
39 0.4
6 0.28

> <PUBCHEM_EFFECTIVE_ROTOR_COUNT>
1.4

> <PUBCHEM_PHARMACOPHORE_FEATURES>
5
1 1 acceptor
1 1 donor
3 9 14 15 hydrophobe
5 2 3 7 8 9 rings
8 2 3 4 5 6 10 11 12 rings

> <PUBCHEM_HEAVY_ATOM_COUNT>
15

> <PUBCHEM_ATOM_DEF_STEREO_COUNT>
0

> <PUBCHEM_ATOM_UDEF_STEREO_COUNT>
5

> <PUBCHEM_BOND_DEF_STEREO_COUNT>
0

> <PUBCHEM_BOND_UDEF_STEREO_COUNT>
0

> <PUBCHEM_ISOTOPIC_ATOM_COUNT>
0

> <PUBCHEM_COMPONENT_COUNT>
1

> <PUBCHEM_CACTVS_TAUTO_COUNT>
1

> <PUBCHEM_CONFORMER_ID>
0008141E00000001

> <PUBCHEM_MMFF94_ENERGY>
66.5158

> <PUBCHEM_FEATURE_SELFOVERLAP>
25.455

> <PUBCHEM_SHAPE_FINGERPRINT>
10353120 184 18186805806899081106
10702982 57 18267853991579648837
10863032 1 18116438029089110711
10948715 1 17131564842458208729
12423570 1 15001925464965374711
12808571 1 17822869571345257340
12932764 1 18343862208601148120
13024252 1 17530682130112367019
13581323 91 17989491801117427580
14817 1 12326207414241053839
14993402 34 18412263965194879407
15775835 57 18201999927949981402
15906896 17 18337104580035135973
16945 1 18187655707907253921
17844478 74 17022627489436014713
19837323 101 18338787910488157457
19868273 325 18264771141258522096
20511035 2 17829594076949357530
20525323 117 18261099803477652072
21296965 12 18043807581051084533
21524375 3 17831005841374441925
22802520 49 18267869385016763638
23419403 2 16747023054256006422
23559900 14 18268432331556543046
2748010 2 18045219345158897624
369184 2 16271930419355344346
430814 3 17972029249923454045
5084963 1 18339373971554967257
528886 8 18336265729556030914
53812653 217 18339068316144371781
598444 67 18125744316876338342
69090 78 18131348609310411095

> <PUBCHEM_SHAPE_MULTIPOLES>
302.82
4.37
1.78
1.4
2.9
0.25
-0.27
0.39
0.12
-0.89
-0.21
-0.09
-0.24
0.2

> <PUBCHEM_SHAPE_SELFOVERLAP>
643.758

> <PUBCHEM_SHAPE_VOLUME>
172.1

> <PUBCHEM_COORDINATE_TYPE>
2
5
10

$$$$
