529623
  -OEChem-11232109113D

 17 17  0     1  0  0  0  0  0999 V2000
    0.0668   -1.4263    0.2214 S   0  0  0  0  0  0  0  0  0  0  0  0
    0.5232    1.4474   -0.4680 S   0  0  0  0  0  0  0  0  0  0  0  0
   -1.3295   -0.2881    0.4961 C   0  0  1  0  0  0  0  0  0  0  0  0
   -0.7468    1.0917    0.7724 C   0  0  0  0  0  0  0  0  0  0  0  0
    1.2201   -0.2311   -0.5330 C   0  0  1  0  0  0  0  0  0  0  0  0
   -2.2844   -0.3240   -0.6957 C   0  0  0  0  0  0  0  0  0  0  0  0
    2.5507   -0.2696    0.2068 C   0  0  0  0  0  0  0  0  0  0  0  0
   -1.8786   -0.6299    1.3805 H   0  0  0  0  0  0  0  0  0  0  0  0
   -1.5185    1.8675    0.7444 H   0  0  0  0  0  0  0  0  0  0  0  0
   -0.2824    1.1280    1.7645 H   0  0  0  0  0  0  0  0  0  0  0  0
    1.3714   -0.5048   -1.5813 H   0  0  0  0  0  0  0  0  0  0  0  0
   -1.8013   -0.0479   -1.6388 H   0  0  0  0  0  0  0  0  0  0  0  0
   -2.7160   -1.3236   -0.8200 H   0  0  0  0  0  0  0  0  0  0  0  0
   -3.1160    0.3710   -0.5350 H   0  0  0  0  0  0  0  0  0  0  0  0
    2.9988   -1.2688    0.1548 H   0  0  0  0  0  0  0  0  0  0  0  0
    3.2698    0.4234   -0.2454 H   0  0  0  0  0  0  0  0  0  0  0  0
    2.4490   -0.0028    1.2656 H   0  0  0  0  0  0  0  0  0  0  0  0
  1  3  1  0  0  0  0
  1  5  1  0  0  0  0
  2  4  1  0  0  0  0
  2  5  1  0  0  0  0
  3  4  1  0  0  0  0
  3  6  1  0  0  0  0
  3  8  1  0  0  0  0
  4  9  1  0  0  0  0
  4 10  1  0  0  0  0
  5  7  1  0  0  0  0
  5 11  1  0  0  0  0
  6 12  1  0  0  0  0
  6 13  1  0  0  0  0
  6 14  1  0  0  0  0
  7 15  1  0  0  0  0
  7 16  1  0  0  0  0
  7 17  1  0  0  0  0
M  END
> <PUBCHEM_COMPOUND_CID>
529623

> <PUBCHEM_CONFORMER_RMSD>
0.4

> <PUBCHEM_CONFORMER_DIVERSEORDER>
5
4
6
1
2
3

> <PUBCHEM_MMFF94_PARTIAL_CHARGES>
5
1 -0.46
2 -0.46
3 0.23
4 0.23
5 0.46

> <PUBCHEM_EFFECTIVE_ROTOR_COUNT>
1

> <PUBCHEM_PHARMACOPHORE_FEATURES>
1
5 1 2 3 4 5 rings

> <PUBCHEM_HEAVY_ATOM_COUNT>
7

> <PUBCHEM_ATOM_DEF_STEREO_COUNT>
0

> <PUBCHEM_ATOM_UDEF_STEREO_COUNT>
2

> <PUBCHEM_BOND_DEF_STEREO_COUNT>
0

> <PUBCHEM_BOND_UDEF_STEREO_COUNT>
0

> <PUBCHEM_ISOTOPIC_ATOM_COUNT>
0

> <PUBCHEM_COMPONENT_COUNT>
1

> <PUBCHEM_CACTVS_TAUTO_COUNT>
1

> <PUBCHEM_CONFORMER_ID>
000814D700000005

> <PUBCHEM_MMFF94_ENERGY>
9.0549

> <PUBCHEM_FEATURE_SELFOVERLAP>
5.074

> <PUBCHEM_SHAPE_FINGERPRINT>
15310529 11 16443921581585879030
16714656 1 18410018710631739358
18185500 45 18411705344067338967
21040471 1 17834693594720491608
23552423 10 18118416055008545702
24536 1 18197804230264787782
29004967 10 18187653495883058371
5084963 1 18411138051828037414

> <PUBCHEM_SHAPE_MULTIPOLES>
151.76
2.79
1.51
0.91
0.44
0.18
0.01
-0.43
-0.27
0.09
0.04
-0.19
0.09
-0.18

> <PUBCHEM_SHAPE_SELFOVERLAP>
260.998

> <PUBCHEM_SHAPE_VOLUME>
101

> <PUBCHEM_COORDINATE_TYPE>
2
5
10

$$$$
