529907
  -OEChem-11232109253D

 26 25  0     0  0  0  0  0  0999 V2000
    3.3539   -1.6431    0.5847 O   0  0  0  0  0  0  0  0  0  0  0  0
   -2.7747    0.3146    0.2209 C   0  0  0  0  0  0  0  0  0  0  0  0
   -1.2852    0.1697   -0.1017 C   0  0  0  0  0  0  0  0  0  0  0  0
   -3.5852   -0.8414   -0.3648 C   0  0  0  0  0  0  0  0  0  0  0  0
   -0.4703    1.3119    0.5150 C   0  0  0  0  0  0  0  0  0  0  0  0
   -5.0605   -0.7191   -0.0183 C   0  0  0  0  0  0  0  0  0  0  0  0
    1.0121    1.3047    0.2544 C   0  0  0  0  0  0  0  0  0  0  0  0
    1.7161    0.3813   -0.4181 C   0  0  0  0  0  0  0  0  0  0  0  0
    3.1950    0.4619   -0.6299 C   0  0  0  0  0  0  0  0  0  0  0  0
    3.8989   -0.7405   -0.0422 C   0  0  0  0  0  0  0  0  0  0  0  0
   -3.1478    1.2657   -0.1783 H   0  0  0  0  0  0  0  0  0  0  0  0
   -2.9126    0.3443    1.3086 H   0  0  0  0  0  0  0  0  0  0  0  0
   -0.9243   -0.7925    0.2822 H   0  0  0  0  0  0  0  0  0  0  0  0
   -1.1515    0.1602   -1.1905 H   0  0  0  0  0  0  0  0  0  0  0  0
   -3.2052   -1.7954    0.0190 H   0  0  0  0  0  0  0  0  0  0  0  0
   -3.4709   -0.8614   -1.4549 H   0  0  0  0  0  0  0  0  0  0  0  0
   -0.6182    1.3107    1.6022 H   0  0  0  0  0  0  0  0  0  0  0  0
   -0.8655    2.2668    0.1459 H   0  0  0  0  0  0  0  0  0  0  0  0
   -5.2112   -0.7305    1.0659 H   0  0  0  0  0  0  0  0  0  0  0  0
   -5.4805    0.2111   -0.4141 H   0  0  0  0  0  0  0  0  0  0  0  0
   -5.6213   -1.5550   -0.4479 H   0  0  0  0  0  0  0  0  0  0  0  0
    1.5491    2.1517    0.6780 H   0  0  0  0  0  0  0  0  0  0  0  0
    1.2118   -0.4730   -0.8607 H   0  0  0  0  0  0  0  0  0  0  0  0
    3.6291    1.3582   -0.1750 H   0  0  0  0  0  0  0  0  0  0  0  0
    3.4097    0.4846   -1.7032 H   0  0  0  0  0  0  0  0  0  0  0  0
    4.9899   -0.7628   -0.2099 H   0  0  0  0  0  0  0  0  0  0  0  0
  1 10  2  0  0  0  0
  2  3  1  0  0  0  0
  2  4  1  0  0  0  0
  2 11  1  0  0  0  0
  2 12  1  0  0  0  0
  3  5  1  0  0  0  0
  3 13  1  0  0  0  0
  3 14  1  0  0  0  0
  4  6  1  0  0  0  0
  4 15  1  0  0  0  0
  4 16  1  0  0  0  0
  5  7  1  0  0  0  0
  5 17  1  0  0  0  0
  5 18  1  0  0  0  0
  6 19  1  0  0  0  0
  6 20  1  0  0  0  0
  6 21  1  0  0  0  0
  7  8  2  3  0  0  0
  7 22  1  0  0  0  0
  8  9  1  0  0  0  0
  8 23  1  0  0  0  0
  9 10  1  0  0  0  0
  9 24  1  0  0  0  0
  9 25  1  0  0  0  0
 10 26  1  0  0  0  0
M  END
> <PUBCHEM_COMPOUND_CID>
529907

> <PUBCHEM_CONFORMER_RMSD>
0.6

> <PUBCHEM_CONFORMER_DIVERSEORDER>
1
30
119
42
83
152
95
54
21
43
154
100
82
36
165
93
15
163
14
92
11
167
149
124
62
168
135
73
101
10
5
44
166
141
13
85
128
84
23
146
170
90
147
8
9
129
151
7
69
145
75
58
22
80
153
123
24
138
162
99
47
25
127
26
158
76
164
60
38
122
34
27
70
169
32
91
134
121
161
65
157
125
126
2
88
144
61
102
16
55
51
103
114
132
56
77
17
137
63
120
106
159
35
111
155
12
105
79
116
86
46
53
20
81
94
45
115
109
6
136
110
87
29
66
130
107
71
64
18
104
59
131
37
31
117
89
113
74
48
139
52
133
108
41
160
19
28
57
97
68
98
143
118
148
67
140
112
33
150
96
50
78
156
72
4
142
3
49
39
40

> <PUBCHEM_MMFF94_PARTIAL_CHARGES>
9
1 -0.57
10 0.45
22 0.15
23 0.15
26 0.06
5 0.14
7 -0.29
8 -0.29
9 0.2

> <PUBCHEM_EFFECTIVE_ROTOR_COUNT>
6

> <PUBCHEM_PHARMACOPHORE_FEATURES>
3
1 1 acceptor
1 6 hydrophobe
5 2 3 4 5 7 hydrophobe

> <PUBCHEM_HEAVY_ATOM_COUNT>
10

> <PUBCHEM_ATOM_DEF_STEREO_COUNT>
0

> <PUBCHEM_ATOM_UDEF_STEREO_COUNT>
0

> <PUBCHEM_BOND_DEF_STEREO_COUNT>
0

> <PUBCHEM_BOND_UDEF_STEREO_COUNT>
1

> <PUBCHEM_ISOTOPIC_ATOM_COUNT>
0

> <PUBCHEM_COMPONENT_COUNT>
1

> <PUBCHEM_CACTVS_TAUTO_COUNT>
3

> <PUBCHEM_CONFORMER_ID>
000815F300000001

> <PUBCHEM_MMFF94_ENERGY>
-1.6514

> <PUBCHEM_FEATURE_SELFOVERLAP>
15.223

> <PUBCHEM_SHAPE_FINGERPRINT>
114248 4 16805325521681010783
11987891 27 18411697694746331263
11987891 38 18335141998776529499
122479 349 10087631615607367556
13690532 89 18411982472816655991
14123260 362 12252179628720971855
14251717 144 18333730199939797242
14252887 29 17489880331742650494
15477762 27 18187367636251316132
177051 138 18342740680865608710
18186145 218 15285363924467001389
20645477 70 18410577309461621134
20871998 22 17703523098745905532
21119208 17 16587742053401090479
21501925 9 18059853978105739552
22485316 2 18412823616254701749
22959321 94 17988921175851902031
32948 21 18187356606944274253
4990 188 16081368566008862859
59345605 21 18187640301770366643
94968 8 18409450289037708546

> <PUBCHEM_SHAPE_MULTIPOLES>
199.93
9.4
1.39
0.74
5.43
0.06
-0.01
4.74
-0.41
-0.69
0.24
-0.2
0
-0.52

> <PUBCHEM_SHAPE_SELFOVERLAP>
359.96

> <PUBCHEM_SHAPE_VOLUME>
128.1

> <PUBCHEM_COORDINATE_TYPE>
2
5
10

$$$$
