530404
  -OEChem-11232109053D

 23 24  0     1  0  0  0  0  0999 V2000
    0.2177   -1.5251   -0.1913 N   0  0  0  0  0  0  0  0  0  0  0  0
    1.3177    1.0852    0.0638 N   0  0  0  0  0  0  0  0  0  0  0  0
   -2.0283   -0.3571   -0.3387 C   0  0  1  0  0  0  0  0  0  0  0  0
   -2.3123    1.0659    0.1932 C   0  0  0  0  0  0  0  0  0  0  0  0
   -1.0616    1.9057   -0.1156 C   0  0  0  0  0  0  0  0  0  0  0  0
   -0.5337   -0.4159   -0.1690 C   0  0  0  0  0  0  0  0  0  0  0  0
    0.0034    0.8534   -0.0495 C   0  0  0  0  0  0  0  0  0  0  0  0
   -2.7842   -1.4299    0.4263 C   0  0  0  0  0  0  0  0  0  0  0  0
    2.0815   -0.0295    0.0582 C   0  0  0  0  0  0  0  0  0  0  0  0
    1.5450   -1.3029   -0.0669 C   0  0  0  0  0  0  0  0  0  0  0  0
    3.5548    0.1502    0.1895 C   0  0  0  0  0  0  0  0  0  0  0  0
   -2.2636   -0.4116   -1.4084 H   0  0  0  0  0  0  0  0  0  0  0  0
   -2.4638    1.0412    1.2817 H   0  0  0  0  0  0  0  0  0  0  0  0
   -3.2167    1.4989   -0.2467 H   0  0  0  0  0  0  0  0  0  0  0  0
   -0.9097    2.6988    0.6209 H   0  0  0  0  0  0  0  0  0  0  0  0
   -1.1063    2.3296   -1.1237 H   0  0  0  0  0  0  0  0  0  0  0  0
   -2.5407   -2.4266    0.0427 H   0  0  0  0  0  0  0  0  0  0  0  0
   -2.5341   -1.4188    1.4931 H   0  0  0  0  0  0  0  0  0  0  0  0
   -3.8649   -1.2842    0.3285 H   0  0  0  0  0  0  0  0  0  0  0  0
    2.1675   -2.1907   -0.0741 H   0  0  0  0  0  0  0  0  0  0  0  0
    3.9236   -0.3674    1.0806 H   0  0  0  0  0  0  0  0  0  0  0  0
    4.0668   -0.2471   -0.6926 H   0  0  0  0  0  0  0  0  0  0  0  0
    3.8146    1.2098    0.2826 H   0  0  0  0  0  0  0  0  0  0  0  0
  1  6  2  0  0  0  0
  1 10  1  0  0  0  0
  2  7  2  0  0  0  0
  2  9  1  0  0  0  0
  3  4  1  0  0  0  0
  3  6  1  0  0  0  0
  3  8  1  0  0  0  0
  3 12  1  0  0  0  0
  4  5  1  0  0  0  0
  4 13  1  0  0  0  0
  4 14  1  0  0  0  0
  5  7  1  0  0  0  0
  5 15  1  0  0  0  0
  5 16  1  0  0  0  0
  6  7  1  0  0  0  0
  8 17  1  0  0  0  0
  8 18  1  0  0  0  0
  8 19  1  0  0  0  0
  9 10  2  0  0  0  0
  9 11  1  0  0  0  0
 10 20  1  0  0  0  0
 11 21  1  0  0  0  0
 11 22  1  0  0  0  0
 11 23  1  0  0  0  0
M  END
> <PUBCHEM_COMPOUND_CID>
530404

> <PUBCHEM_CONFORMER_RMSD>
0.4

> <PUBCHEM_CONFORMER_DIVERSEORDER>
1
2

> <PUBCHEM_MMFF94_PARTIAL_CHARGES>
10
1 -0.62
10 0.16
11 0.14
2 -0.62
20 0.15
3 0.14
5 0.14
6 0.17
7 0.17
9 0.17

> <PUBCHEM_EFFECTIVE_ROTOR_COUNT>
0.6

> <PUBCHEM_PHARMACOPHORE_FEATURES>
4
1 1 acceptor
1 2 acceptor
5 3 4 5 6 7 rings
6 1 2 6 7 9 10 rings

> <PUBCHEM_HEAVY_ATOM_COUNT>
11

> <PUBCHEM_ATOM_DEF_STEREO_COUNT>
0

> <PUBCHEM_ATOM_UDEF_STEREO_COUNT>
1

> <PUBCHEM_BOND_DEF_STEREO_COUNT>
0

> <PUBCHEM_BOND_UDEF_STEREO_COUNT>
0

> <PUBCHEM_ISOTOPIC_ATOM_COUNT>
0

> <PUBCHEM_COMPONENT_COUNT>
1

> <PUBCHEM_CACTVS_TAUTO_COUNT>
1

> <PUBCHEM_CONFORMER_ID>
000817E400000001

> <PUBCHEM_MMFF94_ENERGY>
29.023

> <PUBCHEM_FEATURE_SELFOVERLAP>
20.41

> <PUBCHEM_SHAPE_FINGERPRINT>
10857977 72 18411129272941277899
12032990 46 18411426137034035078
12138202 97 17896303736951267533
12524768 44 18125725573839206703
12897270 3 18410853252525547284
13380535 21 18197512730786909510
13380535 76 18267578005755700231
14325111 11 18411698768825823656
16945 1 18337392625868892677
193761 8 18050848810322985295
19973954 147 18339364054543980924
20201158 50 18335416889663424851
20871998 184 18272933834137105839
21040471 1 18050849922745888764
21501502 16 18267018362616068283
23402655 69 18197761225564875285
23463225 33 18335135337609216610
23552423 10 18260553298663837254
2748010 2 18268712714429671918
29004967 10 18410295830321714387
369184 2 16805603633619337216
5084963 1 18202002157090768560
528886 8 18411693262345388977
53812653 166 18272645723483454088

> <PUBCHEM_SHAPE_MULTIPOLES>
216.41
4.34
1.76
0.64
1.87
0.12
0.01
-0.46
0.49
-0.77
0.02
-0.07
-0.02
0.14

> <PUBCHEM_SHAPE_SELFOVERLAP>
459.022

> <PUBCHEM_SHAPE_VOLUME>
121.4

> <PUBCHEM_COORDINATE_TYPE>
2
5
10

$$$$
