5311408
  -OEChem-11232109203D

 64 67  0     1  0  0  0  0  0999 V2000
    5.3125   -2.3067   -0.6166 O   0  0  0  0  0  0  0  0  0  0  0  0
    1.4672   -0.9011   -1.1304 O   0  0  0  0  0  0  0  0  0  0  0  0
   -1.4829    0.9645    1.6290 O   0  0  0  0  0  0  0  0  0  0  0  0
   -4.6443    0.9683    1.2802 O   0  0  0  0  0  0  0  0  0  0  0  0
    3.4750   -1.6903    0.6989 N   0  0  0  0  0  0  0  0  0  0  0  0
    0.2723   -0.7868    0.8659 N   0  0  0  0  0  0  0  0  0  0  0  0
   -2.6367    0.7462   -0.3654 N   0  0  0  0  0  0  0  0  0  0  0  0
   -5.0769    3.1746    0.7915 N   0  0  0  0  0  0  0  0  0  0  0  0
   -0.1800   -3.9067    0.3741 N   0  0  0  0  0  0  0  0  0  0  0  0
   -1.4320   -5.4509   -0.6160 N   0  0  0  0  0  0  0  0  0  0  0  0
    2.8302    1.8666   -0.0757 C   0  0  0  0  0  0  0  0  0  0  0  0
    3.5546    0.6118    0.4082 C   0  0  1  0  0  0  0  0  0  0  0  0
    2.6603   -0.5216    0.9000 C   0  0  1  0  0  0  0  0  0  0  0  0
    1.9553    2.4519    1.0410 C   0  0  0  0  0  0  0  0  0  0  0  0
    3.8341    2.9090   -0.5862 C   0  0  0  0  0  0  0  0  0  0  0  0
    4.4176   -0.0476   -0.6753 C   0  0  0  0  0  0  0  0  0  0  0  0
    1.2615    3.7381    0.5982 C   0  0  0  0  0  0  0  0  0  0  0  0
    3.1374    4.1946   -1.0263 C   0  0  0  0  0  0  0  0  0  0  0  0
    2.2617    4.7685    0.0833 C   0  0  0  0  0  0  0  0  0  0  0  0
    4.5031   -1.4843   -0.2164 C   0  0  0  0  0  0  0  0  0  0  0  0
    1.4252   -0.7635    0.0894 C   0  0  0  0  0  0  0  0  0  0  0  0
   -1.0427   -0.9792    0.3262 C   0  0  2  0  0  0  0  0  0  0  0  0
   -3.2656    2.0602   -0.3387 C   0  0  1  0  0  0  0  0  0  0  0  0
   -3.7859    2.2696   -1.7561 C   0  0  0  0  0  0  0  0  0  0  0  0
   -2.9606    0.0321   -1.5979 C   0  0  0  0  0  0  0  0  0  0  0  0
   -4.0683    0.8506   -2.2436 C   0  0  0  0  0  0  0  0  0  0  0  0
   -1.7308    0.3344    0.5995 C   0  0  0  0  0  0  0  0  0  0  0  0
   -1.8056   -2.1215    0.9851 C   0  0  0  0  0  0  0  0  0  0  0  0
   -4.3818    1.9958    0.6600 C   0  0  0  0  0  0  0  0  0  0  0  0
   -1.4481   -3.4575    0.3786 C   0  0  0  0  0  0  0  0  0  0  0  0
   -2.2119   -4.3924   -0.2223 C   0  0  0  0  0  0  0  0  0  0  0  0
   -0.2141   -5.1265   -0.2423 C   0  0  0  0  0  0  0  0  0  0  0  0
    2.1758    1.6121   -0.9198 H   0  0  0  0  0  0  0  0  0  0  0  0
    4.2279    0.8853    1.2353 H   0  0  0  0  0  0  0  0  0  0  0  0
    2.4455   -0.4305    1.9691 H   0  0  0  0  0  0  0  0  0  0  0  0
    2.5740    2.6657    1.9223 H   0  0  0  0  0  0  0  0  0  0  0  0
    1.1896    1.7426    1.3632 H   0  0  0  0  0  0  0  0  0  0  0  0
    4.5620    3.1451    0.2007 H   0  0  0  0  0  0  0  0  0  0  0  0
    4.4013    2.5177   -1.4382 H   0  0  0  0  0  0  0  0  0  0  0  0
    5.4188    0.3904   -0.7187 H   0  0  0  0  0  0  0  0  0  0  0  0
    3.9547   -0.0198   -1.6665 H   0  0  0  0  0  0  0  0  0  0  0  0
    0.5345    3.5069   -0.1902 H   0  0  0  0  0  0  0  0  0  0  0  0
    0.6977    4.1601    1.4378 H   0  0  0  0  0  0  0  0  0  0  0  0
    2.5202    3.9910   -1.9100 H   0  0  0  0  0  0  0  0  0  0  0  0
    3.8869    4.9364   -1.3245 H   0  0  0  0  0  0  0  0  0  0  0  0
    2.8970    5.1058    0.9116 H   0  0  0  0  0  0  0  0  0  0  0  0
    1.7259    5.6493   -0.2878 H   0  0  0  0  0  0  0  0  0  0  0  0
    3.2927   -2.5880    1.1371 H   0  0  0  0  0  0  0  0  0  0  0  0
    0.3491   -0.6273    1.8666 H   0  0  0  0  0  0  0  0  0  0  0  0
   -0.9445   -1.1495   -0.7488 H   0  0  0  0  0  0  0  0  0  0  0  0
   -2.5461    2.8261   -0.0296 H   0  0  0  0  0  0  0  0  0  0  0  0
   -2.9939    2.7089   -2.3754 H   0  0  0  0  0  0  0  0  0  0  0  0
   -4.6682    2.9107   -1.8343 H   0  0  0  0  0  0  0  0  0  0  0  0
   -3.2642   -0.9972   -1.3899 H   0  0  0  0  0  0  0  0  0  0  0  0
   -2.0681    0.0271   -2.2332 H   0  0  0  0  0  0  0  0  0  0  0  0
   -4.0729    0.7667   -3.3339 H   0  0  0  0  0  0  0  0  0  0  0  0
   -5.0451    0.5185   -1.8719 H   0  0  0  0  0  0  0  0  0  0  0  0
   -1.6091   -2.1560    2.0648 H   0  0  0  0  0  0  0  0  0  0  0  0
   -2.8876   -1.9740    0.8730 H   0  0  0  0  0  0  0  0  0  0  0  0
   -4.8307    4.0126    0.2745 H   0  0  0  0  0  0  0  0  0  0  0  0
   -5.8597    3.2495    1.4327 H   0  0  0  0  0  0  0  0  0  0  0  0
    0.6395   -3.4491    0.7519 H   0  0  0  0  0  0  0  0  0  0  0  0
   -3.2767   -4.3835   -0.4038 H   0  0  0  0  0  0  0  0  0  0  0  0
    0.6759   -5.7227   -0.3849 H   0  0  0  0  0  0  0  0  0  0  0  0
  1 20  2  0  0  0  0
  2 21  2  0  0  0  0
  3 27  2  0  0  0  0
  4 29  2  0  0  0  0
  5 13  1  0  0  0  0
  5 20  1  0  0  0  0
  5 48  1  0  0  0  0
  6 21  1  0  0  0  0
  6 22  1  0  0  0  0
  6 49  1  0  0  0  0
  7 23  1  0  0  0  0
  7 25  1  0  0  0  0
  7 27  1  0  0  0  0
  8 29  1  0  0  0  0
  8 60  1  0  0  0  0
  8 61  1  0  0  0  0
  9 30  1  0  0  0  0
  9 32  1  0  0  0  0
  9 62  1  0  0  0  0
 10 31  1  0  0  0  0
 10 32  2  0  0  0  0
 11 12  1  0  0  0  0
 11 14  1  0  0  0  0
 11 15  1  0  0  0  0
 11 33  1  0  0  0  0
 12 13  1  0  0  0  0
 12 16  1  0  0  0  0
 12 34  1  0  0  0  0
 13 21  1  0  0  0  0
 13 35  1  0  0  0  0
 14 17  1  0  0  0  0
 14 36  1  0  0  0  0
 14 37  1  0  0  0  0
 15 18  1  0  0  0  0
 15 38  1  0  0  0  0
 15 39  1  0  0  0  0
 16 20  1  0  0  0  0
 16 40  1  0  0  0  0
 16 41  1  0  0  0  0
 17 19  1  0  0  0  0
 17 42  1  0  0  0  0
 17 43  1  0  0  0  0
 18 19  1  0  0  0  0
 18 44  1  0  0  0  0
 18 45  1  0  0  0  0
 19 46  1  0  0  0  0
 19 47  1  0  0  0  0
 22 27  1  0  0  0  0
 22 28  1  0  0  0  0
 22 50  1  0  0  0  0
 23 24  1  0  0  0  0
 23 29  1  0  0  0  0
 23 51  1  0  0  0  0
 24 26  1  0  0  0  0
 24 52  1  0  0  0  0
 24 53  1  0  0  0  0
 25 26  1  0  0  0  0
 25 54  1  0  0  0  0
 25 55  1  0  0  0  0
 26 56  1  0  0  0  0
 26 57  1  0  0  0  0
 28 30  1  0  0  0  0
 28 58  1  0  0  0  0
 28 59  1  0  0  0  0
 30 31  2  0  0  0  0
 31 63  1  0  0  0  0
 32 64  1  0  0  0  0
M  END
> <PUBCHEM_COMPOUND_CID>
5311408

> <PUBCHEM_CONFORMER_RMSD>
1.2

> <PUBCHEM_CONFORMER_DIVERSEORDER>
1
43
95
144
153
160
36
46
72
27
145
69
96
143
149
86
130
152
131
132
82
135
41
122
35
115
30
40
91
158
68
56
28
77
142
79
125
150
161
29
166
116
104
13
12
114
53
128
59
92
57
42
154
71
105
102
74
164
119
63
78
117
45
83
141
127
134
84
103
32
97
67
61
37
159
17
14
101
19
107
52
94
38
118
109
151
24
140
129
7
6
100
25
106
33
70
155
163
157
90
66
60
65
98
88
81
58
20
133
34
110
50
93
55
5
75
139
123
121
51
76
156
165
147
47
148
31
162
126
89
146
112
73
16
9
21
137
138
8
54
44
11
18
49
3
108
48
85
136
124
120
113
62
64
22
2
111
39
15
87
10
99
80
23
26
4

> <PUBCHEM_MMFF94_PARTIAL_CHARGES>
30
1 -0.57
10 -0.57
13 0.36
16 0.06
2 -0.57
20 0.57
21 0.57
22 0.36
23 0.36
25 0.3
27 0.57
28 0.18
29 0.57
3 -0.57
30 -0.33
31 0.08
32 0.04
4 -0.57
48 0.37
49 0.37
5 -0.73
6 -0.73
60 0.37
61 0.37
62 0.27
63 0.15
64 0.15
7 -0.66
8 -0.8
9 0.03

> <PUBCHEM_EFFECTIVE_ROTOR_COUNT>
12

> <PUBCHEM_PHARMACOPHORE_FEATURES>
13
1 1 acceptor
1 2 acceptor
1 3 acceptor
1 4 acceptor
1 5 donor
1 6 donor
1 8 donor
1 9 donor
3 9 10 32 cation
5 5 12 13 16 20 rings
5 7 23 24 25 26 rings
5 9 10 30 31 32 rings
6 11 14 15 17 18 19 rings

> <PUBCHEM_HEAVY_ATOM_COUNT>
32

> <PUBCHEM_ATOM_DEF_STEREO_COUNT>
3

> <PUBCHEM_ATOM_UDEF_STEREO_COUNT>
1

> <PUBCHEM_BOND_DEF_STEREO_COUNT>
0

> <PUBCHEM_BOND_UDEF_STEREO_COUNT>
0

> <PUBCHEM_ISOTOPIC_ATOM_COUNT>
0

> <PUBCHEM_COMPONENT_COUNT>
1

> <PUBCHEM_CACTVS_TAUTO_COUNT>
24

> <PUBCHEM_CONFORMER_ID>
00510BB000000001

> <PUBCHEM_MMFF94_ENERGY>
67.4495

> <PUBCHEM_FEATURE_SELFOVERLAP>
65.974

> <PUBCHEM_SHAPE_FINGERPRINT>
10670039 82 17396146094035223164
10675989 125 18047167916035121135
10930396 42 16251634860779317360
11445158 3 17901708996048323433
12788726 201 17684632608538967483
13583140 156 17386273333898567769
13690498 29 18121801653654388630
13911987 19 18264493888271704020
14790565 3 18411420653019901891
15131766 46 14224009486762137999
20775438 99 17766519767862308639
21033648 144 18411695526141781540
21033648 29 17676480610282366997
22907989 373 18051684735845226135
23559900 14 18198337558425406986
3027735 51 17691684489957158898
3380486 145 17615133613062138835
340366 18 18408606942239287482
4353968 344 17836652199520637492
5252454 2 18115885146581996172
7399639 24 17407109332648376440

> <PUBCHEM_SHAPE_MULTIPOLES>
605.18
9.57
7.45
1.38
2.63
5.1
0.37
-5.29
1.66
-2.4
0.57
-1.22
-0.78
-0.01

> <PUBCHEM_SHAPE_SELFOVERLAP>
1286.745

> <PUBCHEM_SHAPE_VOLUME>
337.9

> <PUBCHEM_COORDINATE_TYPE>
2
5
10

$$$$
