5312350
  -OEChem-11232109233D

 30 29  0     0  0  0  0  0  0999 V2000
   -3.3508    2.2491   -0.1130 O   0  0  0  0  0  0  0  0  0  0  0  0
   -3.8305    0.3204    0.9839 O   0  0  0  0  0  0  0  0  0  0  0  0
    2.1392   -0.2658    0.5710 C   0  0  0  0  0  0  0  0  0  0  0  0
    3.4098   -0.0605   -0.2603 C   0  0  0  0  0  0  0  0  0  0  0  0
    0.9727   -0.9467   -0.1521 C   0  0  0  0  0  0  0  0  0  0  0  0
    4.5490    0.6806    0.4432 C   0  0  0  0  0  0  0  0  0  0  0  0
   -0.2927   -1.0529    0.7021 C   0  0  0  0  0  0  0  0  0  0  0  0
    5.7538    0.9295   -0.4508 C   0  0  0  0  0  0  0  0  0  0  0  0
   -1.3729   -1.8042   -0.0217 C   0  0  0  0  0  0  0  0  0  0  0  0
   -2.3123   -1.2166   -0.7778 C   0  0  0  0  0  0  0  0  0  0  0  0
   -2.4009    0.2627   -0.9945 C   0  0  0  0  0  0  0  0  0  0  0  0
   -3.2644    0.9044    0.0700 C   0  0  0  0  0  0  0  0  0  0  0  0
    2.3940   -0.8513    1.4633 H   0  0  0  0  0  0  0  0  0  0  0  0
    1.8009    0.7142    0.9310 H   0  0  0  0  0  0  0  0  0  0  0  0
    3.7749   -1.0405   -0.5926 H   0  0  0  0  0  0  0  0  0  0  0  0
    3.1417    0.4930   -1.1693 H   0  0  0  0  0  0  0  0  0  0  0  0
    0.7531   -0.3891   -1.0711 H   0  0  0  0  0  0  0  0  0  0  0  0
    1.2922   -1.9492   -0.4652 H   0  0  0  0  0  0  0  0  0  0  0  0
    4.1792    1.6447    0.8121 H   0  0  0  0  0  0  0  0  0  0  0  0
    4.8664    0.1053    1.3208 H   0  0  0  0  0  0  0  0  0  0  0  0
   -0.6249   -0.0569    1.0144 H   0  0  0  0  0  0  0  0  0  0  0  0
   -0.0670   -1.5930    1.6301 H   0  0  0  0  0  0  0  0  0  0  0  0
    6.5355    1.4588    0.1029 H   0  0  0  0  0  0  0  0  0  0  0  0
    5.4779    1.5383   -1.3176 H   0  0  0  0  0  0  0  0  0  0  0  0
    6.1718   -0.0149   -0.8132 H   0  0  0  0  0  0  0  0  0  0  0  0
   -1.3757   -2.8871    0.0702 H   0  0  0  0  0  0  0  0  0  0  0  0
   -3.0576   -1.8400   -1.2647 H   0  0  0  0  0  0  0  0  0  0  0  0
   -1.4174    0.7416   -0.9940 H   0  0  0  0  0  0  0  0  0  0  0  0
   -2.8611    0.4468   -1.9716 H   0  0  0  0  0  0  0  0  0  0  0  0
   -3.9113    2.6751    0.5702 H   0  0  0  0  0  0  0  0  0  0  0  0
  1 12  1  0  0  0  0
  1 30  1  0  0  0  0
  2 12  2  0  0  0  0
  3  4  1  0  0  0  0
  3  5  1  0  0  0  0
  3 13  1  0  0  0  0
  3 14  1  0  0  0  0
  4  6  1  0  0  0  0
  4 15  1  0  0  0  0
  4 16  1  0  0  0  0
  5  7  1  0  0  0  0
  5 17  1  0  0  0  0
  5 18  1  0  0  0  0
  6  8  1  0  0  0  0
  6 19  1  0  0  0  0
  6 20  1  0  0  0  0
  7  9  1  0  0  0  0
  7 21  1  0  0  0  0
  7 22  1  0  0  0  0
  8 23  1  0  0  0  0
  8 24  1  0  0  0  0
  8 25  1  0  0  0  0
  9 10  2  0  0  0  0
  9 26  1  0  0  0  0
 10 11  1  0  0  0  0
 10 27  1  0  0  0  0
 11 12  1  0  0  0  0
 11 28  1  0  0  0  0
 11 29  1  0  0  0  0
M  END
> <PUBCHEM_COMPOUND_CID>
5312350

> <PUBCHEM_CONFORMER_RMSD>
0.8

> <PUBCHEM_CONFORMER_DIVERSEORDER>
1
115
47
188
15
161
18
101
177
88
197
29
86
156
81
22
75
130
174
21
193
16
89
110
44
191
66
19
45
58
199
46
182
165
176
205
37
183
139
27
180
51
184
82
11
36
179
6
114
132
41
142
97
71
195
103
68
200
187
60
53
123
3
54
62
175
189
20
162
52
196
67
92
136
111
102
32
49
23
163
181
190
186
157
127
169
28
109
185
14
65
7
91
59
133
137
30
125
33
192
160
153
168
39
83
167
72
119
149
148
194
57
121
172
113
61
118
13
84
2
24
93
74
151
138
134
87
69
76
201
64
131
98
90
144
104
4
96
116
9
73
143
128
129
25
152
56
145
78
10
198
173
155
159
40
31
48
170
8
34
202
38
43
171
105
141
12
146
5
122
150
35
158
26
108
42
107
100
126
147
204
55
154
112
79
135
80
85
99
164
95
63
166
178
117
203
106
17
94
50
120
77
70
124
140

> <PUBCHEM_MMFF94_PARTIAL_CHARGES>
10
1 -0.65
10 -0.29
11 0.2
12 0.66
2 -0.57
26 0.15
27 0.15
30 0.5
7 0.14
9 -0.29

> <PUBCHEM_EFFECTIVE_ROTOR_COUNT>
7

> <PUBCHEM_PHARMACOPHORE_FEATURES>
6
1 1 acceptor
1 2 acceptor
1 8 hydrophobe
3 1 2 12 anion
3 3 4 6 hydrophobe
3 5 7 9 hydrophobe

> <PUBCHEM_HEAVY_ATOM_COUNT>
12

> <PUBCHEM_ATOM_DEF_STEREO_COUNT>
0

> <PUBCHEM_ATOM_UDEF_STEREO_COUNT>
0

> <PUBCHEM_BOND_DEF_STEREO_COUNT>
1

> <PUBCHEM_BOND_UDEF_STEREO_COUNT>
0

> <PUBCHEM_ISOTOPIC_ATOM_COUNT>
0

> <PUBCHEM_COMPONENT_COUNT>
1

> <PUBCHEM_CACTVS_TAUTO_COUNT>
1

> <PUBCHEM_CONFORMER_ID>
00510F5E00000001

> <PUBCHEM_MMFF94_ENERGY>
2.5132

> <PUBCHEM_FEATURE_SELFOVERLAP>
30.515

> <PUBCHEM_SHAPE_FINGERPRINT>
100836 57 18409735058227974384
10680689 15 18271247248025579214
11046707 91 9511463329344382766
13237642 15 12179847234380780342
14123255 352 18334852797111533540
14123255 52 18337951182160395453
14123260 362 18409735070938828952
14251752 14 12967140376139043571
14251764 75 17840032844787422961
14252887 29 14346066509105050378
15501527 16 18411420639813337432
17834072 32 18338795607149101949
18186145 218 17060330859981490770
200 152 13830134992470054146
20112054 13 17894629214864383087
20211469 26 8502653701256579883
20300324 65 18270391806129605095
20621476 66 18409454683037659412
20645477 56 18343868839529811418
20645477 70 16988295192163104998
20671657 53 10735865201443541235
20724930 69 18411138034991085626
20828058 44 8142097467815768438
20871999 31 17274813696970819063
22485316 2 9871480815668837598
22926399 65 18342735208903258832
23402655 69 17703793630836736700
23403322 49 10087636000942985005
23500284 214 18334860510746053626
23557571 272 18130233773487496438
24859131 72 11025798686683356793
27216 239 18187366511012089009
32948 21 18342742914828747524
49783359 22 8790617992027415764
59345605 10 8862941672026377356
59345606 119 9079111168041871168
9882013 296 13839986607816962426

> <PUBCHEM_SHAPE_MULTIPOLES>
235.22
10.48
1.7
0.92
13.2
0.31
-0.02
5.76
-0.45
-1.76
-0.05
-0.31
-0.04
-0.31

> <PUBCHEM_SHAPE_SELFOVERLAP>
431.642

> <PUBCHEM_SHAPE_VOLUME>
148.6

> <PUBCHEM_COORDINATE_TYPE>
2
5
10

$$$$
