5316879
  -OEChem-11232109223D

 33 33  0     0  0  0  0  0  0999 V2000
    1.4165    0.4390    0.4481 O   0  0  0  0  0  0  0  0  0  0  0  0
    0.0772    0.2179    0.2635 C   0  0  0  0  0  0  0  0  0  0  0  0
    2.3098   -0.4138   -0.2587 C   0  0  0  0  0  0  0  0  0  0  0  0
   -2.6416   -0.2295   -0.1104 C   0  0  0  0  0  0  0  0  0  0  0  0
    4.8257    0.0198   -0.1033 C   0  0  0  0  0  0  0  0  0  0  0  0
    3.5855    0.3186   -0.5341 C   0  0  0  0  0  0  0  0  0  0  0  0
   -0.8148    1.2801    0.3590 C   0  0  0  0  0  0  0  0  0  0  0  0
   -0.3768   -1.0659   -0.0173 C   0  0  0  0  0  0  0  0  0  0  0  0
   -2.1787    1.0556    0.1716 C   0  0  0  0  0  0  0  0  0  0  0  0
   -1.7408   -1.2903   -0.2049 C   0  0  0  0  0  0  0  0  0  0  0  0
    5.9937    0.8900   -0.4867 C   0  0  0  0  0  0  0  0  0  0  0  0
    5.1888   -1.1517    0.7647 C   0  0  0  0  0  0  0  0  0  0  0  0
   -4.0636   -0.4646   -0.3059 C   0  0  0  0  0  0  0  0  0  0  0  0
   -5.0653    0.3408    0.1150 C   0  0  0  0  0  0  0  0  0  0  0  0
   -6.5157    0.0539   -0.1007 C   0  0  0  0  0  0  0  0  0  0  0  0
    2.4649   -1.3235    0.3257 H   0  0  0  0  0  0  0  0  0  0  0  0
    1.9024   -0.6962   -1.2389 H   0  0  0  0  0  0  0  0  0  0  0  0
    3.4630    1.2006   -1.1620 H   0  0  0  0  0  0  0  0  0  0  0  0
   -0.4572    2.2832    0.5740 H   0  0  0  0  0  0  0  0  0  0  0  0
    0.2862   -1.9236   -0.0728 H   0  0  0  0  0  0  0  0  0  0  0  0
   -2.8402    1.9147    0.2349 H   0  0  0  0  0  0  0  0  0  0  0  0
   -2.0842   -2.3000   -0.4170 H   0  0  0  0  0  0  0  0  0  0  0  0
    6.4703    1.3009    0.4093 H   0  0  0  0  0  0  0  0  0  0  0  0
    6.7366    0.3051   -1.0389 H   0  0  0  0  0  0  0  0  0  0  0  0
    5.6974    1.7325   -1.1205 H   0  0  0  0  0  0  0  0  0  0  0  0
    5.6719   -0.8013    1.6832 H   0  0  0  0  0  0  0  0  0  0  0  0
    4.3359   -1.7630    1.0638 H   0  0  0  0  0  0  0  0  0  0  0  0
    5.8907   -1.8057    0.2364 H   0  0  0  0  0  0  0  0  0  0  0  0
   -4.3245   -1.3817   -0.8301 H   0  0  0  0  0  0  0  0  0  0  0  0
   -4.8597    1.2536    0.6659 H   0  0  0  0  0  0  0  0  0  0  0  0
   -7.0281   -0.0222    0.8632 H   0  0  0  0  0  0  0  0  0  0  0  0
   -6.9751    0.8663   -0.6721 H   0  0  0  0  0  0  0  0  0  0  0  0
   -6.6759   -0.8808   -0.6472 H   0  0  0  0  0  0  0  0  0  0  0  0
  1  2  1  0  0  0  0
  1  3  1  0  0  0  0
  2  7  2  0  0  0  0
  2  8  1  0  0  0  0
  3  6  1  0  0  0  0
  3 16  1  0  0  0  0
  3 17  1  0  0  0  0
  4  9  2  0  0  0  0
  4 10  1  0  0  0  0
  4 13  1  0  0  0  0
  5  6  2  0  0  0  0
  5 11  1  0  0  0  0
  5 12  1  0  0  0  0
  6 18  1  0  0  0  0
  7  9  1  0  0  0  0
  7 19  1  0  0  0  0
  8 10  2  0  0  0  0
  8 20  1  0  0  0  0
  9 21  1  0  0  0  0
 10 22  1  0  0  0  0
 11 23  1  0  0  0  0
 11 24  1  0  0  0  0
 11 25  1  0  0  0  0
 12 26  1  0  0  0  0
 12 27  1  0  0  0  0
 12 28  1  0  0  0  0
 13 14  2  0  0  0  0
 13 29  1  0  0  0  0
 14 15  1  0  0  0  0
 14 30  1  0  0  0  0
 15 31  1  0  0  0  0
 15 32  1  0  0  0  0
 15 33  1  0  0  0  0
M  END
> <PUBCHEM_COMPOUND_CID>
5316879

> <PUBCHEM_CONFORMER_RMSD>
0.6

> <PUBCHEM_CONFORMER_DIVERSEORDER>
5
40
2
43
11
41
1
8
15
10
44
33
39
22
17
4
37
20
29
19
35
12
42
38
9
27
13
7
36
14
26
18
25
3
23
31
32
21
24
28
16
34
6
30

> <PUBCHEM_MMFF94_PARTIAL_CHARGES>
22
1 -0.36
10 -0.15
11 0.14
12 0.14
13 -0.18
14 -0.29
15 0.14
18 0.15
19 0.15
2 0.08
20 0.15
21 0.15
22 0.15
29 0.15
3 0.42
30 0.15
4 0.03
5 -0.28
6 -0.29
7 -0.15
8 -0.15
9 -0.15

> <PUBCHEM_EFFECTIVE_ROTOR_COUNT>
4

> <PUBCHEM_PHARMACOPHORE_FEATURES>
4
1 1 acceptor
1 15 hydrophobe
3 5 11 12 hydrophobe
6 2 4 7 8 9 10 rings

> <PUBCHEM_HEAVY_ATOM_COUNT>
15

> <PUBCHEM_ATOM_DEF_STEREO_COUNT>
0

> <PUBCHEM_ATOM_UDEF_STEREO_COUNT>
0

> <PUBCHEM_BOND_DEF_STEREO_COUNT>
1

> <PUBCHEM_BOND_UDEF_STEREO_COUNT>
0

> <PUBCHEM_ISOTOPIC_ATOM_COUNT>
0

> <PUBCHEM_COMPONENT_COUNT>
1

> <PUBCHEM_CACTVS_TAUTO_COUNT>
1

> <PUBCHEM_CONFORMER_ID>
0051210F00000005

> <PUBCHEM_MMFF94_ENERGY>
37.7649

> <PUBCHEM_FEATURE_SELFOVERLAP>
20.297

> <PUBCHEM_SHAPE_FINGERPRINT>
10968037 39 18342459265633389869
11287383 113 16950569908156401064
11401426 45 18131632287948236055
12236239 1 18113617876131774544
12815109 37 18060420226767844692
12916748 109 15285354012151551958
13533116 47 18334289830495363778
13862211 1 18342452651863938215
14123238 8 17917713500244459422
14251752 14 18187919539480306381
14251764 18 18272653442241045027
14911166 2 18342455958977946789
15048467 5 18186802495400324317
15242433 33 18408604777565428550
17834076 25 17846500335516033350
187816 3 17918276454540405435
19489759 90 13973971995656631403
200 152 18411135835598558400
20281389 69 18187081741600543413
20374829 77 18202559601107184383
20645477 70 17346046559083948726
23402539 116 18201714063891234431
23536379 177 17603302639759821633
23557571 272 17489601025914821780
23559900 14 18200870794413157328
300161 21 18335416898680289558
3004659 81 18336267856430044438
3545911 37 18334577949770176062
366044 4 18412826889162524367
42788 4 18334858316038714773
4340502 62 16805606958066670715
4463277 17 18413389839157994329
5374978 207 18343295968924369864
8209 1 18411138038916813861

> <PUBCHEM_SHAPE_MULTIPOLES>
302.82
14.61
1.19
0.73
2.45
0.06
-0.01
-0.64
0.8
0.28
-0.07
0.33
0.02
-0.64

> <PUBCHEM_SHAPE_SELFOVERLAP>
609.408

> <PUBCHEM_SHAPE_VOLUME>
179

> <PUBCHEM_COORDINATE_TYPE>
2
5
10

$$$$
