5318018
  -OEChem-11232108523D

 22 21  0     0  0  0  0  0  0999 V2000
    2.9945    1.1942   -0.1675 O   0  0  0  0  0  0  0  0  0  0  0  0
   -1.6091    0.5217    0.1562 C   0  0  0  0  0  0  0  0  0  0  0  0
   -2.7996   -0.3107   -0.3209 C   0  0  0  0  0  0  0  0  0  0  0  0
   -0.3181   -0.0128   -0.3919 C   0  0  0  0  0  0  0  0  0  0  0  0
    1.9831   -0.9917   -0.1749 C   0  0  0  0  0  0  0  0  0  0  0  0
    0.6871   -0.4638    0.3730 C   0  0  0  0  0  0  0  0  0  0  0  0
   -4.1078    0.2096    0.2538 C   0  0  0  0  0  0  0  0  0  0  0  0
    3.1699   -0.1464    0.2723 C   0  0  0  0  0  0  0  0  0  0  0  0
   -1.7253    1.5601   -0.1766 H   0  0  0  0  0  0  0  0  0  0  0  0
   -1.5873    0.5401    1.2528 H   0  0  0  0  0  0  0  0  0  0  0  0
   -2.8564   -0.2937   -1.4161 H   0  0  0  0  0  0  0  0  0  0  0  0
   -2.6699   -1.3580   -0.0218 H   0  0  0  0  0  0  0  0  0  0  0  0
   -0.2073   -0.0106   -1.4736 H   0  0  0  0  0  0  0  0  0  0  0  0
    2.1190   -2.0243    0.1650 H   0  0  0  0  0  0  0  0  0  0  0  0
    1.9470   -1.0123   -1.2710 H   0  0  0  0  0  0  0  0  0  0  0  0
    0.5779   -0.4641    1.4547 H   0  0  0  0  0  0  0  0  0  0  0  0
   -4.9460   -0.3979   -0.1016 H   0  0  0  0  0  0  0  0  0  0  0  0
   -4.2855    1.2457   -0.0515 H   0  0  0  0  0  0  0  0  0  0  0  0
   -4.0994    0.1698    1.3478 H   0  0  0  0  0  0  0  0  0  0  0  0
    4.1040   -0.5334   -0.1470 H   0  0  0  0  0  0  0  0  0  0  0  0
    3.2625   -0.1379    1.3632 H   0  0  0  0  0  0  0  0  0  0  0  0
    2.9343    1.1787   -1.1379 H   0  0  0  0  0  0  0  0  0  0  0  0
  1  8  1  0  0  0  0
  1 22  1  0  0  0  0
  2  3  1  0  0  0  0
  2  4  1  0  0  0  0
  2  9  1  0  0  0  0
  2 10  1  0  0  0  0
  3  7  1  0  0  0  0
  3 11  1  0  0  0  0
  3 12  1  0  0  0  0
  4  6  2  0  0  0  0
  4 13  1  0  0  0  0
  5  6  1  0  0  0  0
  5  8  1  0  0  0  0
  5 14  1  0  0  0  0
  5 15  1  0  0  0  0
  6 16  1  0  0  0  0
  7 17  1  0  0  0  0
  7 18  1  0  0  0  0
  7 19  1  0  0  0  0
  8 20  1  0  0  0  0
  8 21  1  0  0  0  0
M  END
> <PUBCHEM_COMPOUND_CID>
5318018

> <PUBCHEM_CONFORMER_RMSD>
0.6

> <PUBCHEM_CONFORMER_DIVERSEORDER>
1
5
25
21
7
32
20
19
4
11
2
30
3
27
9
28
12
14
15
6
8
13
10
22
31
23
16
17
26
24
18
29

> <PUBCHEM_MMFF94_PARTIAL_CHARGES>
9
1 -0.68
13 0.15
16 0.15
2 0.14
22 0.4
4 -0.29
5 0.14
6 -0.29
8 0.28

> <PUBCHEM_EFFECTIVE_ROTOR_COUNT>
4

> <PUBCHEM_PHARMACOPHORE_FEATURES>
3
1 1 acceptor
1 1 donor
1 7 hydrophobe

> <PUBCHEM_HEAVY_ATOM_COUNT>
8

> <PUBCHEM_ATOM_DEF_STEREO_COUNT>
0

> <PUBCHEM_ATOM_UDEF_STEREO_COUNT>
0

> <PUBCHEM_BOND_DEF_STEREO_COUNT>
1

> <PUBCHEM_BOND_UDEF_STEREO_COUNT>
0

> <PUBCHEM_ISOTOPIC_ATOM_COUNT>
0

> <PUBCHEM_COMPONENT_COUNT>
1

> <PUBCHEM_CACTVS_TAUTO_COUNT>
1

> <PUBCHEM_CONFORMER_ID>
0051258200000001

> <PUBCHEM_MMFF94_ENERGY>
-1.3207

> <PUBCHEM_FEATURE_SELFOVERLAP>
15.223

> <PUBCHEM_SHAPE_FINGERPRINT>
11062470 55 18040715857590982487
11987891 27 12107789644252892673
12932764 1 17676762098175120983
14325111 11 18411699876658393183
14390081 3 18333730199886672828
170605 34 18408322198644758466
177051 138 13262392254630218160
190213 19 17775566433587180475
20719005 15 18410855460661054675
21293036 1 15410894080504384298
3248919 1 18059569153107233551
5460574 1 8790880796011001431

> <PUBCHEM_SHAPE_MULTIPOLES>
158.77
6.85
0.94
0.68
2.79
0.07
-0.01
0.74
-0.38
-0.58
0.04
0.05
-0.02
-0.13

> <PUBCHEM_SHAPE_SELFOVERLAP>
280.322

> <PUBCHEM_SHAPE_VOLUME>
104

> <PUBCHEM_COORDINATE_TYPE>
2
5
10

$$$$
