5318599
  -OEChem-11232109083D

 25 24  0     0  0  0  0  0  0999 V2000
   -4.7179   -0.2742   -0.1800 O   0  0  0  0  0  0  0  0  0  0  0  0
    2.4575   -0.3986   -0.0822 C   0  0  0  0  0  0  0  0  0  0  0  0
    1.1186    0.2730    0.2289 C   0  0  0  0  0  0  0  0  0  0  0  0
    3.6151    0.5941    0.0214 C   0  0  0  0  0  0  0  0  0  0  0  0
   -0.0350   -0.7295    0.1578 C   0  0  0  0  0  0  0  0  0  0  0  0
    4.9510   -0.0773   -0.2546 C   0  0  0  0  0  0  0  0  0  0  0  0
   -1.3445   -0.0776    0.4951 C   0  0  0  0  0  0  0  0  0  0  0  0
   -2.3732    0.0156   -0.3600 C   0  0  0  0  0  0  0  0  0  0  0  0
   -3.6716    0.6746   -0.0264 C   0  0  0  0  0  0  0  0  0  0  0  0
    2.4291   -0.8277   -1.0912 H   0  0  0  0  0  0  0  0  0  0  0  0
    2.6226   -1.2276    0.6169 H   0  0  0  0  0  0  0  0  0  0  0  0
    0.9446    1.0909   -0.4818 H   0  0  0  0  0  0  0  0  0  0  0  0
    1.1588    0.7215    1.2298 H   0  0  0  0  0  0  0  0  0  0  0  0
    3.6376    1.0375    1.0237 H   0  0  0  0  0  0  0  0  0  0  0  0
    3.4682    1.4128   -0.6926 H   0  0  0  0  0  0  0  0  0  0  0  0
    0.1375   -1.5462    0.8691 H   0  0  0  0  0  0  0  0  0  0  0  0
   -0.0699   -1.1808   -0.8413 H   0  0  0  0  0  0  0  0  0  0  0  0
    5.1431   -0.8796    0.4650 H   0  0  0  0  0  0  0  0  0  0  0  0
    5.7644    0.6509   -0.1766 H   0  0  0  0  0  0  0  0  0  0  0  0
    4.9739   -0.5058   -1.2617 H   0  0  0  0  0  0  0  0  0  0  0  0
   -1.4438    0.3318    1.4974 H   0  0  0  0  0  0  0  0  0  0  0  0
   -2.2741   -0.3930   -1.3626 H   0  0  0  0  0  0  0  0  0  0  0  0
   -3.8514    1.5081   -0.7125 H   0  0  0  0  0  0  0  0  0  0  0  0
   -3.6922    1.0527    1.0007 H   0  0  0  0  0  0  0  0  0  0  0  0
   -5.5512    0.1846    0.0220 H   0  0  0  0  0  0  0  0  0  0  0  0
  1  9  1  0  0  0  0
  1 25  1  0  0  0  0
  2  3  1  0  0  0  0
  2  4  1  0  0  0  0
  2 10  1  0  0  0  0
  2 11  1  0  0  0  0
  3  5  1  0  0  0  0
  3 12  1  0  0  0  0
  3 13  1  0  0  0  0
  4  6  1  0  0  0  0
  4 14  1  0  0  0  0
  4 15  1  0  0  0  0
  5  7  1  0  0  0  0
  5 16  1  0  0  0  0
  5 17  1  0  0  0  0
  6 18  1  0  0  0  0
  6 19  1  0  0  0  0
  6 20  1  0  0  0  0
  7  8  2  0  0  0  0
  7 21  1  0  0  0  0
  8  9  1  0  0  0  0
  8 22  1  0  0  0  0
  9 23  1  0  0  0  0
  9 24  1  0  0  0  0
M  END
> <PUBCHEM_COMPOUND_CID>
5318599

> <PUBCHEM_CONFORMER_RMSD>
0.6

> <PUBCHEM_CONFORMER_DIVERSEORDER>
2
53
46
9
33
49
20
66
45
1
65
30
4
37
39
63
61
28
15
64
40
42
5
6
41
19
62
25
56
10
21
17
11
50
7
58
8
12
36
57
18
43
47
44
27
14
35
23
22
60
54
32
59
24
16
48
52
26
31
51
29
13
38
34
3
55

> <PUBCHEM_MMFF94_PARTIAL_CHARGES>
8
1 -0.68
21 0.15
22 0.15
25 0.4
5 0.14
7 -0.29
8 -0.29
9 0.42

> <PUBCHEM_EFFECTIVE_ROTOR_COUNT>
5

> <PUBCHEM_PHARMACOPHORE_FEATURES>
4
1 1 acceptor
1 1 donor
1 6 hydrophobe
5 2 3 4 5 7 hydrophobe

> <PUBCHEM_HEAVY_ATOM_COUNT>
9

> <PUBCHEM_ATOM_DEF_STEREO_COUNT>
0

> <PUBCHEM_ATOM_UDEF_STEREO_COUNT>
0

> <PUBCHEM_BOND_DEF_STEREO_COUNT>
1

> <PUBCHEM_BOND_UDEF_STEREO_COUNT>
0

> <PUBCHEM_ISOTOPIC_ATOM_COUNT>
0

> <PUBCHEM_COMPONENT_COUNT>
1

> <PUBCHEM_CACTVS_TAUTO_COUNT>
1

> <PUBCHEM_CONFORMER_ID>
005127C700000002

> <PUBCHEM_MMFF94_ENERGY>
-2.1296

> <PUBCHEM_FEATURE_SELFOVERLAP>
20.297

> <PUBCHEM_SHAPE_FINGERPRINT>
11062470 55 18272652346354471304
114248 4 17846498149077031732
14123238 8 17603586335123789550
14252887 29 10737280217448239312
17834076 25 18259705601691260236
18342897 14 13118002201695798582
20645477 70 18200316516062309086
20719005 15 18410856564193219716
20767249 13 11527946746568543981
20767249 213 17022905678836688012
20828058 44 10737292345987516313
21119208 17 17203609285153418780
21293036 1 18202563981662518482
22485316 2 10015865370686441676
23402539 116 18272082790746753741
23402655 69 18342451496412195229
366044 4 18333731325289722714
42788 4 18409449185099166660
449060 50 15213021548548765978

> <PUBCHEM_SHAPE_MULTIPOLES>
179.35
9.96
0.79
0.67
0.92
0.01
0.01
0.93
-1.24
0.01
0.01
-0.01
0
0.03

> <PUBCHEM_SHAPE_SELFOVERLAP>
317.54

> <PUBCHEM_SHAPE_VOLUME>
117.2

> <PUBCHEM_COORDINATE_TYPE>
2
5
10

$$$$
