5318516
  -OEChem-11232109443D

 41 40  0     0  0  0  0  0  0999 V2000
    2.1698   -0.0288    1.8409 O   0  0  0  0  0  0  0  0  0  0  0  0
    3.1528   -0.7479   -0.1392 N   0  0  0  0  0  0  0  0  0  0  0  0
    5.6009   -0.3881   -0.1993 C   0  0  0  0  0  0  0  0  0  0  0  0
   -4.8650   -0.4016   -0.2742 C   0  0  0  0  0  0  0  0  0  0  0  0
   -4.9184    1.1204   -0.0914 C   0  0  0  0  0  0  0  0  0  0  0  0
    4.4249   -1.1573    0.4129 C   0  0  0  0  0  0  0  0  0  0  0  0
   -6.1284   -1.1630    0.1344 C   0  0  0  0  0  0  0  0  0  0  0  0
   -3.6772    1.8822   -0.5676 C   0  0  0  0  0  0  0  0  0  0  0  0
    5.7068   -0.6252   -1.7074 C   0  0  0  0  0  0  0  0  0  0  0  0
    5.4537    1.1073    0.0844 C   0  0  0  0  0  0  0  0  0  0  0  0
   -6.0541   -2.6562   -0.1426 C   0  0  0  0  0  0  0  0  0  0  0  0
   -2.4372    1.5201    0.1991 C   0  0  0  0  0  0  0  0  0  0  0  0
    2.1311   -0.2163    0.6294 C   0  0  0  0  0  0  0  0  0  0  0  0
   -1.3418    0.9915   -0.3665 C   0  0  0  0  0  0  0  0  0  0  0  0
    0.9356    0.1176   -0.1945 C   0  0  0  0  0  0  0  0  0  0  0  0
   -0.1536    0.6454    0.3815 C   0  0  0  0  0  0  0  0  0  0  0  0
    6.5247   -0.7452    0.2723 H   0  0  0  0  0  0  0  0  0  0  0  0
   -4.6539   -0.6154   -1.3298 H   0  0  0  0  0  0  0  0  0  0  0  0
   -4.0209   -0.8059    0.2978 H   0  0  0  0  0  0  0  0  0  0  0  0
   -5.7865    1.5074   -0.6396 H   0  0  0  0  0  0  0  0  0  0  0  0
   -5.0988    1.3439    0.9681 H   0  0  0  0  0  0  0  0  0  0  0  0
    4.4182   -1.0333    1.5013 H   0  0  0  0  0  0  0  0  0  0  0  0
    4.5288   -2.2284    0.2067 H   0  0  0  0  0  0  0  0  0  0  0  0
   -6.3149   -1.0054    1.2032 H   0  0  0  0  0  0  0  0  0  0  0  0
   -6.9894   -0.7477   -0.4026 H   0  0  0  0  0  0  0  0  0  0  0  0
   -3.5377    1.7092   -1.6417 H   0  0  0  0  0  0  0  0  0  0  0  0
   -3.8532    2.9576   -0.4440 H   0  0  0  0  0  0  0  0  0  0  0  0
    4.8510   -0.2134   -2.2520 H   0  0  0  0  0  0  0  0  0  0  0  0
    5.7711   -1.6956   -1.9291 H   0  0  0  0  0  0  0  0  0  0  0  0
    6.6096   -0.1487   -2.1051 H   0  0  0  0  0  0  0  0  0  0  0  0
    6.3387    1.6502   -0.2654 H   0  0  0  0  0  0  0  0  0  0  0  0
    5.3552    1.2930    1.1593 H   0  0  0  0  0  0  0  0  0  0  0  0
    4.5825    1.5399   -0.4184 H   0  0  0  0  0  0  0  0  0  0  0  0
    3.0001   -0.9087   -1.1305 H   0  0  0  0  0  0  0  0  0  0  0  0
   -5.9090   -2.8485   -1.2103 H   0  0  0  0  0  0  0  0  0  0  0  0
   -5.2237   -3.1133    0.4047 H   0  0  0  0  0  0  0  0  0  0  0  0
   -6.9806   -3.1477    0.1697 H   0  0  0  0  0  0  0  0  0  0  0  0
   -2.4556    1.7149    1.2692 H   0  0  0  0  0  0  0  0  0  0  0  0
   -1.3301    0.8032   -1.4371 H   0  0  0  0  0  0  0  0  0  0  0  0
    0.9728   -0.0752   -1.2623 H   0  0  0  0  0  0  0  0  0  0  0  0
   -0.1766    0.8339    1.4517 H   0  0  0  0  0  0  0  0  0  0  0  0
  1 13  2  0  0  0  0
  2  6  1  0  0  0  0
  2 13  1  0  0  0  0
  2 34  1  0  0  0  0
  3  6  1  0  0  0  0
  3  9  1  0  0  0  0
  3 10  1  0  0  0  0
  3 17  1  0  0  0  0
  4  5  1  0  0  0  0
  4  7  1  0  0  0  0
  4 18  1  0  0  0  0
  4 19  1  0  0  0  0
  5  8  1  0  0  0  0
  5 20  1  0  0  0  0
  5 21  1  0  0  0  0
  6 22  1  0  0  0  0
  6 23  1  0  0  0  0
  7 11  1  0  0  0  0
  7 24  1  0  0  0  0
  7 25  1  0  0  0  0
  8 12  1  0  0  0  0
  8 26  1  0  0  0  0
  8 27  1  0  0  0  0
  9 28  1  0  0  0  0
  9 29  1  0  0  0  0
  9 30  1  0  0  0  0
 10 31  1  0  0  0  0
 10 32  1  0  0  0  0
 10 33  1  0  0  0  0
 11 35  1  0  0  0  0
 11 36  1  0  0  0  0
 11 37  1  0  0  0  0
 12 14  2  0  0  0  0
 12 38  1  0  0  0  0
 13 15  1  0  0  0  0
 14 16  1  0  0  0  0
 14 39  1  0  0  0  0
 15 16  2  0  0  0  0
 15 40  1  0  0  0  0
 16 41  1  0  0  0  0
M  END
> <PUBCHEM_COMPOUND_CID>
5318516

> <PUBCHEM_CONFORMER_RMSD>
0.8

> <PUBCHEM_CONFORMER_DIVERSEORDER>
3
149
165
125
10
131
99
44
6
117
111
116
8
128
29
153
38
13
16
148
147
2
46
22
126
68
87
107
12
85
122
7
163
66
113
36
104
48
30
164
67
118
162
75
72
19
71
11
139
51
28
9
161
77
89
35
166
54
132
91
42
15
53
157
143
60
137
26
5
40
98
114
74
92
127
106
52
55
41
33
58
56
160
69
37
63
150
97
23
102
109
21
4
32
100
112
103
61
152
59
24
136
130
84
80
65
94
90
156
17
129
142
64
43
133
108
82
14
70
39
79
27
96
120
134
124
81
50
88
45
18
1
86
47
145
25
95
101
115
57
159
34
93
123
135
62
121
83
141
49
20
73
105
154
78
76
158
144
31
146
138
110
151
119
155
140

> <PUBCHEM_MMFF94_PARTIAL_CHARGES>
14
1 -0.57
12 -0.29
13 0.62
14 -0.15
15 -0.14
16 -0.15
2 -0.73
34 0.37
38 0.15
39 0.15
40 0.15
41 0.15
6 0.3
8 0.14

> <PUBCHEM_EFFECTIVE_ROTOR_COUNT>
9

> <PUBCHEM_PHARMACOPHORE_FEATURES>
5
1 1 acceptor
1 11 hydrophobe
1 2 donor
3 3 9 10 hydrophobe
5 4 5 7 8 12 hydrophobe

> <PUBCHEM_HEAVY_ATOM_COUNT>
16

> <PUBCHEM_ATOM_DEF_STEREO_COUNT>
0

> <PUBCHEM_ATOM_UDEF_STEREO_COUNT>
0

> <PUBCHEM_BOND_DEF_STEREO_COUNT>
2

> <PUBCHEM_BOND_UDEF_STEREO_COUNT>
0

> <PUBCHEM_ISOTOPIC_ATOM_COUNT>
0

> <PUBCHEM_COMPONENT_COUNT>
1

> <PUBCHEM_CACTVS_TAUTO_COUNT>
2

> <PUBCHEM_CONFORMER_ID>
0051277400000003

> <PUBCHEM_MMFF94_ENERGY>
8.0024

> <PUBCHEM_FEATURE_SELFOVERLAP>
25.373

> <PUBCHEM_SHAPE_FINGERPRINT>
10730089 47 18338515236506292642
10912923 1 17822570491218823720
11056379 131 18337673014841649093
11089746 13 9079111138166880859
11287383 113 18412824673022527760
117890 112 8214141854502057638
13288520 33 18410855465388610173
13740256 8 18412825807089027297
13911882 115 18059864943416060407
14123256 34 18337676429578162659
1420 363 18131070420004787485
14251718 22 18335138687161506976
14251732 14 18407761447529976387
14251732 16 18411698824365200788
14251758 9 11240003368716301769
14251764 18 11815895652750824933
14455015 7 17275385378392032852
14461889 52 18339354267025806978
14528608 73 17894634734240503084
15183329 4 12247678249154063864
15501527 24 17603305955395420467
16079462 125 12612755734890974718
17780758 139 17988931076880258195
17834072 33 18260830375847452204
18335252 98 18201442506273714734
19489759 90 8718537320871789149
20621476 21 18059583494240782591
20621476 66 9583528624659826479
21054139 6 17967811652084155867
21150785 3 18187372047235314508
21196832 93 17751369601771076611
21623969 137 17275110517686356462
220451 1 18261116210131449001
22896161 15 18409448124052444412
2297311 6 18272374152886099933
2303208 19 17775566429160305542
23081809 10 17386008325853031424
23402539 116 16732984176713805989
23424782 7 18341051921241784456
23559900 14 18337099151497842817
23590187 90 14418138426231214918
2838139 119 7997972354276518747
300161 21 17023460842273241053
34797466 226 18272660064827810788
4072396 5 13551187793250319488
4325135 7 18259987084656661996
441001 317 8646770002372394295
5283384 27 14418424338336690102
7062679 117 18259988171673654267
7495541 125 18272928328163261592
8217 86 18409449228238782787

> <PUBCHEM_SHAPE_MULTIPOLES>
318.42
18.24
1.94
1.04
1.9
0.55
0
7.72
-3.32
3.81
-0.17
-1.38
0.09
0.43

> <PUBCHEM_SHAPE_SELFOVERLAP>
592.821

> <PUBCHEM_SHAPE_VOLUME>
199.2

> <PUBCHEM_COORDINATE_TYPE>
2
5
10

$$$$
