5320722
  -OEChem-11232109203D

 20 19  0     0  0  0  0  0  0999 V2000
   -0.7858   -1.2625   -0.6178 S   0  0  0  0  0  0  0  0  0  0  0  0
    0.8911   -1.3689    0.5659 S   0  0  0  0  0  0  0  0  0  0  0  0
   -3.1229    0.1729   -0.4269 C   0  0  0  0  0  0  0  0  0  0  0  0
   -1.7990   -0.0620    0.2917 C   0  0  0  0  0  0  0  0  0  0  0  0
   -3.9852    1.1750    0.3268 C   0  0  0  0  0  0  0  0  0  0  0  0
    1.8372   -0.1200   -0.1475 C   0  0  0  0  0  0  0  0  0  0  0  0
    3.0593    0.1940    0.3018 C   0  0  0  0  0  0  0  0  0  0  0  0
    3.9053    1.2715   -0.2939 C   0  0  0  0  0  0  0  0  0  0  0  0
   -2.9453    0.5533   -1.4402 H   0  0  0  0  0  0  0  0  0  0  0  0
   -3.6786   -0.7680   -0.5217 H   0  0  0  0  0  0  0  0  0  0  0  0
   -1.2501    0.8823    0.3737 H   0  0  0  0  0  0  0  0  0  0  0  0
   -1.9873   -0.4454    1.3003 H   0  0  0  0  0  0  0  0  0  0  0  0
   -3.4788    2.1417    0.4133 H   0  0  0  0  0  0  0  0  0  0  0  0
   -4.9310    1.3331   -0.2008 H   0  0  0  0  0  0  0  0  0  0  0  0
   -4.2147    0.8152    1.3350 H   0  0  0  0  0  0  0  0  0  0  0  0
    1.4323    0.4337   -0.9896 H   0  0  0  0  0  0  0  0  0  0  0  0
    3.4914   -0.3423    1.1435 H   0  0  0  0  0  0  0  0  0  0  0  0
    4.1344    2.0266    0.4642 H   0  0  0  0  0  0  0  0  0  0  0  0
    4.8481    0.8482   -0.6536 H   0  0  0  0  0  0  0  0  0  0  0  0
    3.4131    1.7708   -1.1345 H   0  0  0  0  0  0  0  0  0  0  0  0
  1  2  1  0  0  0  0
  1  4  1  0  0  0  0
  2  6  1  0  0  0  0
  3  4  1  0  0  0  0
  3  5  1  0  0  0  0
  3  9  1  0  0  0  0
  3 10  1  0  0  0  0
  4 11  1  0  0  0  0
  4 12  1  0  0  0  0
  5 13  1  0  0  0  0
  5 14  1  0  0  0  0
  5 15  1  0  0  0  0
  6  7  2  0  0  0  0
  6 16  1  0  0  0  0
  7  8  1  0  0  0  0
  7 17  1  0  0  0  0
  8 18  1  0  0  0  0
  8 19  1  0  0  0  0
  8 20  1  0  0  0  0
M  END
> <PUBCHEM_COMPOUND_CID>
5320722

> <PUBCHEM_CONFORMER_RMSD>
0.6

> <PUBCHEM_CONFORMER_DIVERSEORDER>
2
31
27
32
26
1
25
46
28
42
41
45
16
7
39
47
12
23
40
24
11
22
13
15
35
9
21
10
8
14
44
34
19
18
37
4
20
36
38
17
30
6
3
33
29
5
43

> <PUBCHEM_MMFF94_PARTIAL_CHARGES>
8
1 -0.23
16 0.15
17 0.15
2 -0.1
4 0.23
6 -0.05
7 -0.29
8 0.14

> <PUBCHEM_EFFECTIVE_ROTOR_COUNT>
4

> <PUBCHEM_PHARMACOPHORE_FEATURES>
3
1 5 hydrophobe
1 8 hydrophobe
5 1 2 3 4 6 hydrophobe

> <PUBCHEM_HEAVY_ATOM_COUNT>
8

> <PUBCHEM_ATOM_DEF_STEREO_COUNT>
0

> <PUBCHEM_ATOM_UDEF_STEREO_COUNT>
0

> <PUBCHEM_BOND_DEF_STEREO_COUNT>
1

> <PUBCHEM_BOND_UDEF_STEREO_COUNT>
0

> <PUBCHEM_ISOTOPIC_ATOM_COUNT>
0

> <PUBCHEM_COMPONENT_COUNT>
1

> <PUBCHEM_CACTVS_TAUTO_COUNT>
1

> <PUBCHEM_CONFORMER_ID>
0051301200000002

> <PUBCHEM_MMFF94_ENERGY>
-6.1042

> <PUBCHEM_FEATURE_SELFOVERLAP>
15.223

> <PUBCHEM_SHAPE_FINGERPRINT>
10149128 111 18411421708648270853
122479 349 18334580186936479810
14251710 61 8430326757108860200
14325111 11 18411417314933799727
14390081 3 18411417293669797427
15775835 57 18411417314864942124
170605 34 18408322163921335050
177051 138 8070027774448701344
18342897 69 8214147360602651895
18342897 96 18341891947767079646
20211469 26 8862950467512686034
20653085 51 18340775948070941098
20711983 171 18273493489766182606
21119208 17 15770058328172323341
21293036 1 17418089936183812787
449060 62 18340207393069043569

> <PUBCHEM_SHAPE_MULTIPOLES>
172.34
7.63
1.49
0.81
0.64
0.14
-0.01
-5.01
0
-0.17
0.01
0.06
0.11
-0.5

> <PUBCHEM_SHAPE_SELFOVERLAP>
280.699

> <PUBCHEM_SHAPE_VOLUME>
119.9

> <PUBCHEM_COORDINATE_TYPE>
2
5
10

$$$$
