53230316
  -OEChem-11232108443D

 25 26  0     0  0  0  0  0  0999 V2000
    0.0194    1.0423    0.9295 S   0  0  0  0  0  0  0  0  0  0  0  0
   -3.2631   -0.9887   -0.0564 O   0  0  0  0  0  0  0  0  0  0  0  0
    4.5953   -0.3588   -0.4887 O   0  0  0  0  0  0  0  0  0  0  0  0
    0.5796    0.3785   -1.5528 O   0  0  0  0  0  0  0  0  0  0  0  0
   -1.5838    0.4081    0.4734 C   0  0  0  0  0  0  0  0  0  0  0  0
   -1.9506   -0.9042    0.2850 C   0  0  0  0  0  0  0  0  0  0  0  0
   -3.7397    0.2836   -0.0863 C   0  0  0  0  0  0  0  0  0  0  0  0
   -2.7458    1.1794    0.2322 C   0  0  0  0  0  0  0  0  0  0  0  0
   -1.2295   -2.1835    0.3771 C   0  0  0  0  0  0  0  0  0  0  0  0
   -5.1587    0.4377   -0.4371 C   0  0  0  0  0  0  0  0  0  0  0  0
    2.4494    0.2080   -0.1338 C   0  0  0  0  0  0  0  0  0  0  0  0
    1.0694    0.4790   -0.4048 C   0  0  0  0  0  0  0  0  0  0  0  0
    3.1387    0.2780    1.1003 C   0  0  0  0  0  0  0  0  0  0  0  0
    3.3791   -0.1837   -1.0689 C   0  0  0  0  0  0  0  0  0  0  0  0
    4.4405   -0.0757    0.8314 C   0  0  0  0  0  0  0  0  0  0  0  0
   -2.8507    2.2544    0.2830 H   0  0  0  0  0  0  0  0  0  0  0  0
   -0.5562   -2.1931    1.2399 H   0  0  0  0  0  0  0  0  0  0  0  0
   -1.9225   -3.0237    0.4877 H   0  0  0  0  0  0  0  0  0  0  0  0
   -0.6342   -2.3516   -0.5256 H   0  0  0  0  0  0  0  0  0  0  0  0
   -5.3545    0.0312   -1.4342 H   0  0  0  0  0  0  0  0  0  0  0  0
   -5.7920   -0.0919    0.2813 H   0  0  0  0  0  0  0  0  0  0  0  0
   -5.4537    1.4916   -0.4368 H   0  0  0  0  0  0  0  0  0  0  0  0
    2.7568    0.5483    2.0744 H   0  0  0  0  0  0  0  0  0  0  0  0
    3.3412   -0.3738   -2.1321 H   0  0  0  0  0  0  0  0  0  0  0  0
    5.3299   -0.1700    1.4370 H   0  0  0  0  0  0  0  0  0  0  0  0
  1  5  1  0  0  0  0
  1 12  1  0  0  0  0
  2  6  1  0  0  0  0
  2  7  1  0  0  0  0
  3 14  1  0  0  0  0
  3 15  1  0  0  0  0
  4 12  2  0  0  0  0
  5  6  2  0  0  0  0
  5  8  1  0  0  0  0
  6  9  1  0  0  0  0
  7  8  2  0  0  0  0
  7 10  1  0  0  0  0
  8 16  1  0  0  0  0
  9 17  1  0  0  0  0
  9 18  1  0  0  0  0
  9 19  1  0  0  0  0
 10 20  1  0  0  0  0
 10 21  1  0  0  0  0
 10 22  1  0  0  0  0
 11 12  1  0  0  0  0
 11 13  1  0  0  0  0
 11 14  2  0  0  0  0
 13 15  2  0  0  0  0
 13 23  1  0  0  0  0
 14 24  1  0  0  0  0
 15 25  1  0  0  0  0
M  END
> <PUBCHEM_COMPOUND_CID>
53230316

> <PUBCHEM_CONFORMER_RMSD>
0.6

> <PUBCHEM_CONFORMER_DIVERSEORDER>
4
107
24
40
81
85
109
5
99
108
13
93
42
70
7
111
38
98
35
97
73
112
41
55
28
18
31
16
102
90
60
54
83
100
69
46
72
36
33
47
106
68
29
25
84
44
34
12
39
91
51
65
27
30
49
37
9
88
92
101
43
45
105
103
53
115
96
78
57
1
75
26
87
86
48
76
11
23
20
89
74
56
14
114
113
104
2
32
15
59
95
10
71
3
50
21
79
62
110
80
6
63
22
8
66
61
17
19
77
94
82
52
64
67
58

> <PUBCHEM_MMFF94_PARTIAL_CHARGES>
19
1 -0.2
10 0.18
11 -0.09
12 0.8
13 -0.15
14 -0.01
15 -0.01
16 0.15
2 -0.28
23 0.15
24 0.15
25 0.15
3 -0.28
4 -0.57
5 0.05
6 -0.04
7 -0.04
8 -0.15
9 0.18

> <PUBCHEM_EFFECTIVE_ROTOR_COUNT>
3

> <PUBCHEM_PHARMACOPHORE_FEATURES>
4
1 2 acceptor
1 3 acceptor
5 2 5 6 7 8 rings
5 3 11 13 14 15 rings

> <PUBCHEM_HEAVY_ATOM_COUNT>
15

> <PUBCHEM_ATOM_DEF_STEREO_COUNT>
0

> <PUBCHEM_ATOM_UDEF_STEREO_COUNT>
0

> <PUBCHEM_BOND_DEF_STEREO_COUNT>
0

> <PUBCHEM_BOND_UDEF_STEREO_COUNT>
0

> <PUBCHEM_ISOTOPIC_ATOM_COUNT>
0

> <PUBCHEM_COMPONENT_COUNT>
1

> <PUBCHEM_CACTVS_TAUTO_COUNT>
1

> <PUBCHEM_CONFORMER_ID>
032C3AEC00000004

> <PUBCHEM_MMFF94_ENERGY>
13.1537

> <PUBCHEM_FEATURE_SELFOVERLAP>
20.297

> <PUBCHEM_SHAPE_FINGERPRINT>
10366900 7 17632584850990390586
10465860 250 18272647948097230352
11401426 45 18060133241590842229
12236239 1 17603584118889185393
12346177 29 18340198695686741127
124424 183 18202283614813821929
12500047 106 18411416211290605074
12592029 89 17748828475706025947
12815109 37 17847058883027937825
13533116 47 18129379315556283566
14115302 16 18335708277197658453
14943859 89 16515686649886264785
14993402 34 17967534575164089725
15207287 21 17917994983837634639
15375358 24 18131914870820787186
17834072 14 18060418044782176529
17834072 33 15936698146236263731
18511873 20 18040716991114228007
187816 3 18272369763534771761
200 152 15770055021421882985
20201158 50 17917999373156976359
20279233 1 17917998282372472190
20528008 55 17632857538068387530
20645476 183 17676486176981664011
20645477 70 16845016710865749740
21119208 17 17894068502436065385
21652331 79 10015574004711564178
22485316 2 18260545636969630400
22854114 59 15769774658746724000
23402539 116 18343575231861385477
23402655 69 15791452625815712628
23559900 14 18343302591653280720
26918003 58 17418092117853048018
300161 21 18040432222398878284
351380 180 17775280560389969977
522135 26 15647051556142641624
57005193 9 18408599249425670850
57812782 119 17846781810271256376
58051976 100 17967533506044371555
69090 78 17632291285432971399
74978 22 17750522942998273608
81228 2 17701286666262356849
8272917 22 16371278914418409747
9709674 26 18202008737065529950

> <PUBCHEM_SHAPE_MULTIPOLES>
294.93
9.47
1.3
1.08
0.54
0.58
0.13
-0.16
0.65
-0.9
-0.28
0.72
-0.06
0.33

> <PUBCHEM_SHAPE_SELFOVERLAP>
616.673

> <PUBCHEM_SHAPE_VOLUME>
170.6

> <PUBCHEM_COORDINATE_TYPE>
2
5
10

$$$$
