532739
  -OEChem-11232108413D

 28 28  0     0  0  0  0  0  0999 V2000
    1.2913    0.2285    0.8750 O   0  0  0  0  0  0  0  0  0  0  0  0
    1.7371   -0.5300   -1.2913 O   0  0  0  0  0  0  0  0  0  0  0  0
   -4.0615    0.2430   -0.4396 O   0  0  0  0  0  0  0  0  0  0  0  0
    3.5525   -0.1600    0.2930 C   0  0  0  0  0  0  0  0  0  0  0  0
    4.1503    1.2138    0.0134 C   0  0  0  0  0  0  0  0  0  0  0  0
    4.3650   -1.2587   -0.3869 C   0  0  0  0  0  0  0  0  0  0  0  0
    2.1065   -0.1939   -0.1736 C   0  0  0  0  0  0  0  0  0  0  0  0
   -0.0652    0.2319    0.5423 C   0  0  0  0  0  0  0  0  0  0  0  0
   -0.8054   -0.9074    0.7687 C   0  0  0  0  0  0  0  0  0  0  0  0
   -0.6106    1.3747    0.0005 C   0  0  0  0  0  0  0  0  0  0  0  0
   -2.7399    0.2391   -0.1144 C   0  0  0  0  0  0  0  0  0  0  0  0
   -2.1600   -0.9039    0.4361 C   0  0  0  0  0  0  0  0  0  0  0  0
   -1.9652    1.3784   -0.3320 C   0  0  0  0  0  0  0  0  0  0  0  0
   -4.7949   -0.9554   -0.1912 C   0  0  0  0  0  0  0  0  0  0  0  0
    3.5708   -0.3559    1.3724 H   0  0  0  0  0  0  0  0  0  0  0  0
    5.1856    1.2692    0.3649 H   0  0  0  0  0  0  0  0  0  0  0  0
    3.5777    1.9980    0.5204 H   0  0  0  0  0  0  0  0  0  0  0  0
    4.1394    1.4415   -1.0584 H   0  0  0  0  0  0  0  0  0  0  0  0
    5.3910   -1.2770   -0.0050 H   0  0  0  0  0  0  0  0  0  0  0  0
    3.9169   -2.2415   -0.2047 H   0  0  0  0  0  0  0  0  0  0  0  0
    4.4090   -1.1123   -1.4719 H   0  0  0  0  0  0  0  0  0  0  0  0
   -0.3530   -1.7962    1.1976 H   0  0  0  0  0  0  0  0  0  0  0  0
   -0.0077    2.2615   -0.1684 H   0  0  0  0  0  0  0  0  0  0  0  0
   -2.7029   -1.8223    0.6316 H   0  0  0  0  0  0  0  0  0  0  0  0
   -2.4113    2.2718   -0.7605 H   0  0  0  0  0  0  0  0  0  0  0  0
   -4.4172   -1.7900   -0.7916 H   0  0  0  0  0  0  0  0  0  0  0  0
   -5.8270   -0.7746   -0.5088 H   0  0  0  0  0  0  0  0  0  0  0  0
   -4.8264   -1.1937    0.8775 H   0  0  0  0  0  0  0  0  0  0  0  0
  1  7  1  0  0  0  0
  1  8  1  0  0  0  0
  2  7  2  0  0  0  0
  3 11  1  0  0  0  0
  3 14  1  0  0  0  0
  4  5  1  0  0  0  0
  4  6  1  0  0  0  0
  4  7  1  0  0  0  0
  4 15  1  0  0  0  0
  5 16  1  0  0  0  0
  5 17  1  0  0  0  0
  5 18  1  0  0  0  0
  6 19  1  0  0  0  0
  6 20  1  0  0  0  0
  6 21  1  0  0  0  0
  8  9  2  0  0  0  0
  8 10  1  0  0  0  0
  9 12  1  0  0  0  0
  9 22  1  0  0  0  0
 10 13  2  0  0  0  0
 10 23  1  0  0  0  0
 11 12  2  0  0  0  0
 11 13  1  0  0  0  0
 12 24  1  0  0  0  0
 13 25  1  0  0  0  0
 14 26  1  0  0  0  0
 14 27  1  0  0  0  0
 14 28  1  0  0  0  0
M  END
> <PUBCHEM_COMPOUND_CID>
532739

> <PUBCHEM_CONFORMER_RMSD>
0.6

> <PUBCHEM_CONFORMER_DIVERSEORDER>
1
22
34
29
14
12
17
23
28
32
30
25
9
36
19
10
11
20
2
15
18
33
7
27
16
26
4
21
24
8
13
35
3
31
5
6

> <PUBCHEM_MMFF94_PARTIAL_CHARGES>
16
1 -0.23
10 -0.15
11 0.08
12 -0.15
13 -0.15
14 0.28
2 -0.57
22 0.15
23 0.15
24 0.15
25 0.15
3 -0.36
4 0.06
7 0.66
8 0.08
9 -0.15

> <PUBCHEM_EFFECTIVE_ROTOR_COUNT>
4

> <PUBCHEM_PHARMACOPHORE_FEATURES>
4
1 2 acceptor
1 3 acceptor
3 4 5 6 hydrophobe
6 8 9 10 11 12 13 rings

> <PUBCHEM_HEAVY_ATOM_COUNT>
14

> <PUBCHEM_ATOM_DEF_STEREO_COUNT>
0

> <PUBCHEM_ATOM_UDEF_STEREO_COUNT>
0

> <PUBCHEM_BOND_DEF_STEREO_COUNT>
0

> <PUBCHEM_BOND_UDEF_STEREO_COUNT>
0

> <PUBCHEM_ISOTOPIC_ATOM_COUNT>
0

> <PUBCHEM_COMPONENT_COUNT>
1

> <PUBCHEM_CACTVS_TAUTO_COUNT>
1

> <PUBCHEM_CONFORMER_ID>
0008210300000001

> <PUBCHEM_MMFF94_ENERGY>
44.0519

> <PUBCHEM_FEATURE_SELFOVERLAP>
20.297

> <PUBCHEM_SHAPE_FINGERPRINT>
12032990 46 18409168848578952947
12251169 10 10879985865517972026
12932764 1 14117230616560369074
14115302 16 17676494981258250127
14911166 2 18187076278770979135
14993402 34 16877944927458664223
15375462 189 14692565490263234734
18186145 218 17967532350671782156
187816 3 17894630357584205075
200 152 17775565316922076834
20201158 50 18272654532366373838
20279233 1 18411423920973205330
20344682 1 18201719569633307820
20528008 55 18409728482522203008
20645476 183 16732984245380626403
20645477 70 18343023259870895862
21119208 17 17022621970297687159
212847 35 11602815804876656110
21293036 1 18260264161818924345
22485316 2 18272649060578038815
23402539 116 18335976493594456893
23557571 272 18411704253151252108
23559900 14 18334857230108249818
2748010 2 17899131900175409465
4463277 17 18335421279673739921
57812782 119 18409730638827809690
69090 78 18410008844828317714
9709674 26 18338524045072961422

> <PUBCHEM_SHAPE_MULTIPOLES>
270.51
8.85
1.35
0.85
0.74
0.2
-0.04
-1.73
-1.35
0.1
-0.05
0.17
-0.09
0.38

> <PUBCHEM_SHAPE_SELFOVERLAP>
553.108

> <PUBCHEM_SHAPE_VOLUME>
157

> <PUBCHEM_COORDINATE_TYPE>
2
5
10

$$$$
