53411110
  -OEChem-11232109243D

 39 38  0     0  0  0  0  0  0999 V2000
    4.1179    0.6215    0.1875 O   0  0  0  0  0  0  0  0  0  0  0  0
    3.1170   -1.4579    0.0820 O   0  0  0  0  0  0  0  0  0  0  0  0
    5.3209   -0.1995    0.1175 O   0  0  0  0  0  0  0  0  0  0  0  0
   -3.2934    0.4808    0.0909 C   0  0  0  0  0  0  0  0  0  0  0  0
   -2.0087   -0.3504    0.0552 C   0  0  0  0  0  0  0  0  0  0  0  0
   -4.5320   -0.4104   -0.0269 C   0  0  0  0  0  0  0  0  0  0  0  0
   -0.7669    0.5400    0.1346 C   0  0  0  0  0  0  0  0  0  0  0  0
   -5.8482    0.3722   -0.0199 C   0  0  0  0  0  0  0  0  0  0  0  0
    0.5164   -0.2967    0.1329 C   0  0  0  0  0  0  0  0  0  0  0  0
   -7.0817   -0.5111   -0.2115 C   0  0  0  0  0  0  0  0  0  0  0  0
    1.7749    0.5646    0.2401 C   0  0  0  0  0  0  0  0  0  0  0  0
   -8.3613    0.3110   -0.1847 C   0  0  0  0  0  0  0  0  0  0  0  0
    3.0546   -0.2392    0.1691 C   0  0  0  0  0  0  0  0  0  0  0  0
    6.3467    0.6745   -0.3319 C   0  0  0  0  0  0  0  0  0  0  0  0
    7.6437   -0.0995   -0.4349 C   0  0  0  0  0  0  0  0  0  0  0  0
   -3.3396    1.0518    1.0259 H   0  0  0  0  0  0  0  0  0  0  0  0
   -3.2860    1.2059   -0.7318 H   0  0  0  0  0  0  0  0  0  0  0  0
   -1.9765   -0.9406   -0.8688 H   0  0  0  0  0  0  0  0  0  0  0  0
   -2.0086   -1.0593    0.8921 H   0  0  0  0  0  0  0  0  0  0  0  0
   -4.5405   -1.1330    0.7985 H   0  0  0  0  0  0  0  0  0  0  0  0
   -4.4688   -0.9916   -0.9553 H   0  0  0  0  0  0  0  0  0  0  0  0
   -0.7545    1.2339   -0.7145 H   0  0  0  0  0  0  0  0  0  0  0  0
   -0.8061    1.1456    1.0481 H   0  0  0  0  0  0  0  0  0  0  0  0
   -5.8201    1.1263   -0.8164 H   0  0  0  0  0  0  0  0  0  0  0  0
   -5.9338    0.9174    0.9283 H   0  0  0  0  0  0  0  0  0  0  0  0
    0.4936   -1.0094    0.9669 H   0  0  0  0  0  0  0  0  0  0  0  0
    0.5598   -0.8946   -0.7863 H   0  0  0  0  0  0  0  0  0  0  0  0
   -7.0129   -1.0427   -1.1675 H   0  0  0  0  0  0  0  0  0  0  0  0
   -7.1218   -1.2684    0.5797 H   0  0  0  0  0  0  0  0  0  0  0  0
    1.7872    1.2897   -0.5819 H   0  0  0  0  0  0  0  0  0  0  0  0
    1.7675    1.1087    1.1912 H   0  0  0  0  0  0  0  0  0  0  0  0
   -8.4741    0.8304    0.7723 H   0  0  0  0  0  0  0  0  0  0  0  0
   -9.2314   -0.3383   -0.3233 H   0  0  0  0  0  0  0  0  0  0  0  0
   -8.3643    1.0586   -0.9844 H   0  0  0  0  0  0  0  0  0  0  0  0
    6.4576    1.5001    0.3792 H   0  0  0  0  0  0  0  0  0  0  0  0
    6.0737    1.0815   -1.3114 H   0  0  0  0  0  0  0  0  0  0  0  0
    7.9171   -0.5250    0.5363 H   0  0  0  0  0  0  0  0  0  0  0  0
    7.5381   -0.9381   -1.1311 H   0  0  0  0  0  0  0  0  0  0  0  0
    8.4572    0.5451   -0.7795 H   0  0  0  0  0  0  0  0  0  0  0  0
  1  3  1  0  0  0  0
  1 13  1  0  0  0  0
  2 13  2  0  0  0  0
  3 14  1  0  0  0  0
  4  5  1  0  0  0  0
  4  6  1  0  0  0  0
  4 16  1  0  0  0  0
  4 17  1  0  0  0  0
  5  7  1  0  0  0  0
  5 18  1  0  0  0  0
  5 19  1  0  0  0  0
  6  8  1  0  0  0  0
  6 20  1  0  0  0  0
  6 21  1  0  0  0  0
  7  9  1  0  0  0  0
  7 22  1  0  0  0  0
  7 23  1  0  0  0  0
  8 10  1  0  0  0  0
  8 24  1  0  0  0  0
  8 25  1  0  0  0  0
  9 11  1  0  0  0  0
  9 26  1  0  0  0  0
  9 27  1  0  0  0  0
 10 12  1  0  0  0  0
 10 28  1  0  0  0  0
 10 29  1  0  0  0  0
 11 13  1  0  0  0  0
 11 30  1  0  0  0  0
 11 31  1  0  0  0  0
 12 32  1  0  0  0  0
 12 33  1  0  0  0  0
 12 34  1  0  0  0  0
 14 15  1  0  0  0  0
 14 35  1  0  0  0  0
 14 36  1  0  0  0  0
 15 37  1  0  0  0  0
 15 38  1  0  0  0  0
 15 39  1  0  0  0  0
M  END
> <PUBCHEM_COMPOUND_CID>
53411110

> <PUBCHEM_CONFORMER_RMSD>
1.2

> <PUBCHEM_CONFORMER_DIVERSEORDER>
1
21
23
11
14
37
31
26
29
30
40
24
2
33
25
43
45
15
38
22
10
28
41
3
13
6
36
16
18
20
42
34
17
46
7
44
19
35
39
5
4
32
8
9
27
12

> <PUBCHEM_MMFF94_PARTIAL_CHARGES>
6
1 -0.15
11 0.06
13 0.66
14 0.28
2 -0.57
3 -0.28

> <PUBCHEM_EFFECTIVE_ROTOR_COUNT>
11

> <PUBCHEM_PHARMACOPHORE_FEATURES>
2
1 12 hydrophobe
1 2 acceptor

> <PUBCHEM_HEAVY_ATOM_COUNT>
15

> <PUBCHEM_ATOM_DEF_STEREO_COUNT>
0

> <PUBCHEM_ATOM_UDEF_STEREO_COUNT>
0

> <PUBCHEM_BOND_DEF_STEREO_COUNT>
0

> <PUBCHEM_BOND_UDEF_STEREO_COUNT>
0

> <PUBCHEM_ISOTOPIC_ATOM_COUNT>
0

> <PUBCHEM_COMPONENT_COUNT>
1

> <PUBCHEM_CACTVS_TAUTO_COUNT>
1

> <PUBCHEM_CONFORMER_ID>
032EFD2600000001

> <PUBCHEM_MMFF94_ENERGY>
-1.5768

> <PUBCHEM_FEATURE_SELFOVERLAP>
10.148

> <PUBCHEM_SHAPE_FINGERPRINT>
10968037 39 18335138700848060735
11315181 36 18342461461332245729
12091667 2 18408323290257366201
13533116 47 18342452591318067835
14123256 10 18411138034616513244
14251764 18 18412544293246393737
14251764 46 18333168371631657872
14729087 3 13479123597921465447
17834076 25 18410856568240293156
18006028 8 16988844981951524697
20621476 8 18409729547426088293
20645477 70 18339360747773227438
21150785 3 18187083962314464933
22224240 67 12612754631089972736
23035841 295 15770057233050348823
23521765 1 18341895194661790625
246663 6 15339124541676079420
33532 11 14189301439082173788
33684 2 18410573980856483851
3545911 37 18410854369206475114
42788 4 18412543215362654505
4325135 7 18335139795199655740
59682541 35 11097862899534848389
8209 1 18410856563998144868

> <PUBCHEM_SHAPE_MULTIPOLES>
291.09
24.64
0.88
0.64
7.49
0.11
-0.01
-0.87
-3.71
-0.29
0.01
-0.05
-0.01
-0.09

> <PUBCHEM_SHAPE_SELFOVERLAP>
526.308

> <PUBCHEM_SHAPE_VOLUME>
187

> <PUBCHEM_COORDINATE_TYPE>
2
5
10

$$$$
