53422908
  -OEChem-11232108403D

 44 44  0     1  0  0  0  0  0999 V2000
    4.0156   -0.2884   -0.7564 O   0  0  0  0  0  0  0  0  0  0  0  0
    1.9981   -0.0252    0.4961 C   0  0  2  0  0  0  0  0  0  0  0  0
    1.8393   -1.5582    0.4677 C   0  0  0  0  0  0  0  0  0  0  0  0
    0.5787   -2.0976    1.1748 C   0  0  0  0  0  0  0  0  0  0  0  0
    1.0475    0.7707   -0.3813 C   0  0  0  0  0  0  0  0  0  0  0  0
   -0.6679   -2.2221    0.3161 C   0  0  0  0  0  0  0  0  0  0  0  0
    3.3925    0.3556    0.0863 C   0  0  0  0  0  0  0  0  0  0  0  0
    0.2998    1.7459    0.1768 C   0  0  0  0  0  0  0  0  0  0  0  0
   -0.8285    2.5225   -0.4564 C   0  0  0  0  0  0  0  0  0  0  0  0
   -3.0956   -1.5250   -0.1336 C   0  0  0  0  0  0  0  0  0  0  0  0
   -1.7999   -1.5668    0.6462 C   0  0  0  0  0  0  0  0  0  0  0  0
    0.9706    0.3950   -1.8380 C   0  0  0  0  0  0  0  0  0  0  0  0
   -3.6872   -0.1043   -0.2560 C   0  0  0  0  0  0  0  0  0  0  0  0
   -2.1433    1.9103   -0.0175 C   0  0  0  0  0  0  0  0  0  0  0  0
   -0.5635   -3.1810   -0.8408 C   0  0  0  0  0  0  0  0  0  0  0  0
   -2.6423    0.8723   -0.7176 C   0  0  0  0  0  0  0  0  0  0  0  0
    3.9895    1.5627    0.7579 C   0  0  0  0  0  0  0  0  0  0  0  0
   -2.7037    2.4335    1.2756 C   0  0  0  0  0  0  0  0  0  0  0  0
    1.8918    0.2756    1.5476 H   0  0  0  0  0  0  0  0  0  0  0  0
    2.7025   -1.9867    0.9977 H   0  0  0  0  0  0  0  0  0  0  0  0
    1.9139   -1.9459   -0.5549 H   0  0  0  0  0  0  0  0  0  0  0  0
    0.3811   -1.4972    2.0717 H   0  0  0  0  0  0  0  0  0  0  0  0
    0.8084   -3.1054    1.5474 H   0  0  0  0  0  0  0  0  0  0  0  0
    0.4380    1.9521    1.2382 H   0  0  0  0  0  0  0  0  0  0  0  0
   -0.7614    2.5516   -1.5477 H   0  0  0  0  0  0  0  0  0  0  0  0
   -0.7679    3.5707   -0.1398 H   0  0  0  0  0  0  0  0  0  0  0  0
   -2.9605   -1.9200   -1.1460 H   0  0  0  0  0  0  0  0  0  0  0  0
   -3.8288   -2.1684    0.3666 H   0  0  0  0  0  0  0  0  0  0  0  0
   -1.7936   -0.9618    1.5521 H   0  0  0  0  0  0  0  0  0  0  0  0
    1.9696    0.3202   -2.2773 H   0  0  0  0  0  0  0  0  0  0  0  0
    0.4325    1.1254   -2.4455 H   0  0  0  0  0  0  0  0  0  0  0  0
    0.4677   -0.5645   -1.9654 H   0  0  0  0  0  0  0  0  0  0  0  0
   -4.5135   -0.1151   -0.9759 H   0  0  0  0  0  0  0  0  0  0  0  0
   -4.1174    0.1753    0.7099 H   0  0  0  0  0  0  0  0  0  0  0  0
   -0.0407   -4.0918   -0.5283 H   0  0  0  0  0  0  0  0  0  0  0  0
   -1.5378   -3.5046   -1.2160 H   0  0  0  0  0  0  0  0  0  0  0  0
   -0.0092   -2.7397   -1.6723 H   0  0  0  0  0  0  0  0  0  0  0  0
   -2.1493    0.5951   -1.6489 H   0  0  0  0  0  0  0  0  0  0  0  0
    5.0069    1.7201    0.3886 H   0  0  0  0  0  0  0  0  0  0  0  0
    3.3950    2.4508    0.5317 H   0  0  0  0  0  0  0  0  0  0  0  0
    4.0323    1.4008    1.8379 H   0  0  0  0  0  0  0  0  0  0  0  0
   -2.7457    3.5278    1.2498 H   0  0  0  0  0  0  0  0  0  0  0  0
   -3.7226    2.0918    1.4715 H   0  0  0  0  0  0  0  0  0  0  0  0
   -2.0725    2.1327    2.1176 H   0  0  0  0  0  0  0  0  0  0  0  0
  1  7  2  0  0  0  0
  2  3  1  0  0  0  0
  2  5  1  0  0  0  0
  2  7  1  0  0  0  0
  2 19  1  0  0  0  0
  3  4  1  0  0  0  0
  3 20  1  0  0  0  0
  3 21  1  0  0  0  0
  4  6  1  0  0  0  0
  4 22  1  0  0  0  0
  4 23  1  0  0  0  0
  5  8  2  3  0  0  0
  5 12  1  0  0  0  0
  6 11  2  3  0  0  0
  6 15  1  0  0  0  0
  7 17  1  0  0  0  0
  8  9  1  0  0  0  0
  8 24  1  0  0  0  0
  9 14  1  0  0  0  0
  9 25  1  0  0  0  0
  9 26  1  0  0  0  0
 10 11  1  0  0  0  0
 10 13  1  0  0  0  0
 10 27  1  0  0  0  0
 10 28  1  0  0  0  0
 11 29  1  0  0  0  0
 12 30  1  0  0  0  0
 12 31  1  0  0  0  0
 12 32  1  0  0  0  0
 13 16  1  0  0  0  0
 13 33  1  0  0  0  0
 13 34  1  0  0  0  0
 14 16  2  3  0  0  0
 14 18  1  0  0  0  0
 15 35  1  0  0  0  0
 15 36  1  0  0  0  0
 15 37  1  0  0  0  0
 16 38  1  0  0  0  0
 17 39  1  0  0  0  0
 17 40  1  0  0  0  0
 17 41  1  0  0  0  0
 18 42  1  0  0  0  0
 18 43  1  0  0  0  0
 18 44  1  0  0  0  0
M  END
> <PUBCHEM_COMPOUND_CID>
53422908

> <PUBCHEM_CONFORMER_RMSD>
0.6

> <PUBCHEM_CONFORMER_DIVERSEORDER>
1
16
14
11
17
4
10
5
15
8
7
12
18
6
13
2
3
9

> <PUBCHEM_MMFF94_PARTIAL_CHARGES>
20
1 -0.57
10 0.14
11 -0.29
12 0.14
13 0.14
14 -0.28
15 0.14
16 -0.29
17 0.06
18 0.14
2 0.2
24 0.15
29 0.15
38 0.15
4 0.14
5 -0.28
6 -0.28
7 0.45
8 -0.29
9 0.28

> <PUBCHEM_EFFECTIVE_ROTOR_COUNT>
2.2

> <PUBCHEM_PHARMACOPHORE_FEATURES>
1
1 1 acceptor

> <PUBCHEM_HEAVY_ATOM_COUNT>
18

> <PUBCHEM_ATOM_DEF_STEREO_COUNT>
0

> <PUBCHEM_ATOM_UDEF_STEREO_COUNT>
1

> <PUBCHEM_BOND_DEF_STEREO_COUNT>
0

> <PUBCHEM_BOND_UDEF_STEREO_COUNT>
3

> <PUBCHEM_ISOTOPIC_ATOM_COUNT>
0

> <PUBCHEM_COMPONENT_COUNT>
1

> <PUBCHEM_CACTVS_TAUTO_COUNT>
8

> <PUBCHEM_CONFORMER_ID>
032F2B3C00000001

> <PUBCHEM_MMFF94_ENERGY>
29.9223

> <PUBCHEM_FEATURE_SELFOVERLAP>
5.074

> <PUBCHEM_SHAPE_FINGERPRINT>
104564 63 18409452474812195299
10498660 4 18408594860285332655
10967382 1 18408317791633694931
11370993 70 18189598463391775789
11458722 379 18335704914327994966
13032168 30 18411698815854394433
13132413 78 18046907362091080852
13140716 1 17904485451770467563
14081887 123 18198887292342127784
1420 336 18120653797330811667
14251711 518 18192421081665646987
14251745 187 18341042025373559752
14787075 74 18125427859639077112
15196674 1 18335696122714497907
15775835 57 18338520712183185905
16945 1 18339072804401273530
20510252 161 18342174500790955849
20645477 70 17758671157679661757
20905425 154 18337953364141276391
21041028 32 17756720984586400234
21141583 151 18343020008248122656
21160774 45 18261662727624437493
21634736 98 18190186878448849396
2334 1 18336542724892388115
23402539 116 18271516615304678111
23419403 2 16176720640772938263
23557571 272 18270687579311263967
23559900 14 18411979174762028420
238 59 17179081177982055693
257057 1 17476633656111630735
2748010 2 18336832991635602519
2871803 45 18409719643421706637
2897 32 18189332377467158495
7364860 26 17764027960933526068
7832392 63 18194678387469325482
81228 2 18262237854010596424

> <PUBCHEM_SHAPE_MULTIPOLES>
364.56
6
3.42
1.18
2.76
0.89
0.18
-1.75
-0.33
-1.71
-0.36
0.1
-0.05
-0.24

> <PUBCHEM_SHAPE_SELFOVERLAP>
717.502

> <PUBCHEM_SHAPE_VOLUME>
217.5

> <PUBCHEM_COORDINATE_TYPE>
2
5
10

$$$$
