53425201
  -OEChem-11232108403D

 33 34  0     1  0  0  0  0  0999 V2000
   -4.3852    0.9347    0.7282 N   0  0  0  0  0  0  0  0  0  0  0  0
    2.2171    0.9662   -0.1722 C   0  0  0  0  0  0  0  0  0  0  0  0
    2.2817   -0.3429    0.5777 C   0  0  1  0  0  0  0  0  0  0  0  0
    1.3746    0.7657    1.0564 C   0  0  2  0  0  0  0  0  0  0  0  0
    1.7078   -1.5792   -0.0580 C   0  0  0  0  0  0  0  0  0  0  0  0
   -0.1152    0.6023    0.9602 C   0  0  0  0  0  0  0  0  0  0  0  0
    0.2466   -1.8382    0.3552 C   0  0  1  0  0  0  0  0  0  0  0  0
    1.5627    1.0555   -1.5099 C   0  0  0  0  0  0  0  0  0  0  0  0
    3.3961    1.8725   -0.0441 C   0  0  0  0  0  0  0  0  0  0  0  0
   -0.5721   -0.5763    0.1271 C   0  0  0  0  0  0  0  0  0  0  0  0
   -0.2702   -3.1025   -0.3386 C   0  0  0  0  0  0  0  0  0  0  0  0
   -1.5951   -0.4526   -0.7329 C   0  0  0  0  0  0  0  0  0  0  0  0
   -2.3592    0.8155   -0.9412 C   0  0  0  0  0  0  0  0  0  0  0  0
   -3.4896    0.8793   -0.0079 C   0  0  0  0  0  0  0  0  0  0  0  0
    3.1644   -0.5581    1.1685 H   0  0  0  0  0  0  0  0  0  0  0  0
    1.6579    1.3012    1.9559 H   0  0  0  0  0  0  0  0  0  0  0  0
    1.8234   -1.5637   -1.1476 H   0  0  0  0  0  0  0  0  0  0  0  0
    2.3122   -2.4337    0.2757 H   0  0  0  0  0  0  0  0  0  0  0  0
   -0.4877    0.4294    1.9793 H   0  0  0  0  0  0  0  0  0  0  0  0
   -0.5266    1.5677    0.6633 H   0  0  0  0  0  0  0  0  0  0  0  0
    0.2232   -2.0408    1.4357 H   0  0  0  0  0  0  0  0  0  0  0  0
    2.3250    1.0617   -2.2985 H   0  0  0  0  0  0  0  0  0  0  0  0
    1.0090    1.9979   -1.5924 H   0  0  0  0  0  0  0  0  0  0  0  0
    0.8790    0.2521   -1.7754 H   0  0  0  0  0  0  0  0  0  0  0  0
    3.1048    2.9124   -0.2276 H   0  0  0  0  0  0  0  0  0  0  0  0
    4.1717    1.6023   -0.7689 H   0  0  0  0  0  0  0  0  0  0  0  0
    3.8500    1.8294    0.9525 H   0  0  0  0  0  0  0  0  0  0  0  0
    0.3437   -3.9676   -0.0642 H   0  0  0  0  0  0  0  0  0  0  0  0
   -1.3004   -3.3240   -0.0392 H   0  0  0  0  0  0  0  0  0  0  0  0
   -0.2394   -3.0087   -1.4297 H   0  0  0  0  0  0  0  0  0  0  0  0
   -1.9110   -1.2994   -1.3354 H   0  0  0  0  0  0  0  0  0  0  0  0
   -1.7446    1.7174   -0.8967 H   0  0  0  0  0  0  0  0  0  0  0  0
   -2.7486    0.8029   -1.9675 H   0  0  0  0  0  0  0  0  0  0  0  0
  1 14  3  0  0  0  0
  2  3  1  0  0  0  0
  2  4  1  0  0  0  0
  2  8  1  0  0  0  0
  2  9  1  0  0  0  0
  3  4  1  0  0  0  0
  3  5  1  0  0  0  0
  3 15  1  0  0  0  0
  4  6  1  0  0  0  0
  4 16  1  0  0  0  0
  5  7  1  0  0  0  0
  5 17  1  0  0  0  0
  5 18  1  0  0  0  0
  6 10  1  0  0  0  0
  6 19  1  0  0  0  0
  6 20  1  0  0  0  0
  7 10  1  0  0  0  0
  7 11  1  0  0  0  0
  7 21  1  0  0  0  0
  8 22  1  0  0  0  0
  8 23  1  0  0  0  0
  8 24  1  0  0  0  0
  9 25  1  0  0  0  0
  9 26  1  0  0  0  0
  9 27  1  0  0  0  0
 10 12  2  3  0  0  0
 11 28  1  0  0  0  0
 11 29  1  0  0  0  0
 11 30  1  0  0  0  0
 12 13  1  0  0  0  0
 12 31  1  0  0  0  0
 13 14  1  0  0  0  0
 13 32  1  0  0  0  0
 13 33  1  0  0  0  0
M  END
> <PUBCHEM_COMPOUND_CID>
53425201

> <PUBCHEM_CONFORMER_RMSD>
0.6

> <PUBCHEM_CONFORMER_DIVERSEORDER>
2
5
12
8
3
13
11
21
6
19
4
7
1
23
20
14
9
16
15
18
10
22
17

> <PUBCHEM_MMFF94_PARTIAL_CHARGES>
16
1 -0.56
10 -0.28
12 -0.29
13 0.34
14 0.36
15 0.1
16 0.1
2 -0.19
3 -0.19
31 0.15
4 -0.19
5 0.09
6 0.23
7 0.14
8 0.09
9 0.09

> <PUBCHEM_EFFECTIVE_ROTOR_COUNT>
1.8

> <PUBCHEM_PHARMACOPHORE_FEATURES>
3
1 1 acceptor
3 2 8 9 hydrophobe
7 2 3 4 5 6 7 10 rings

> <PUBCHEM_HEAVY_ATOM_COUNT>
14

> <PUBCHEM_ATOM_DEF_STEREO_COUNT>
0

> <PUBCHEM_ATOM_UDEF_STEREO_COUNT>
3

> <PUBCHEM_BOND_DEF_STEREO_COUNT>
0

> <PUBCHEM_BOND_UDEF_STEREO_COUNT>
1

> <PUBCHEM_ISOTOPIC_ATOM_COUNT>
0

> <PUBCHEM_COMPONENT_COUNT>
1

> <PUBCHEM_CACTVS_TAUTO_COUNT>
1

> <PUBCHEM_CONFORMER_ID>
032F343100000002

> <PUBCHEM_MMFF94_ENERGY>
33.9865

> <PUBCHEM_FEATURE_SELFOVERLAP>
15.223

> <PUBCHEM_SHAPE_FINGERPRINT>
1 1 18337666417096590703
10465860 228 18268433425897419321
10980938 120 18270956839548047817
11031198 65 18413110545929503649
12491281 212 17970342844316436444
13380535 21 18413109468014284951
13380536 305 18338520737868652006
14648413 74 17829596271999737037
15775835 57 18343017804829627293
16945 1 18194385711185816622
1741750 31 18268424814366606672
18186145 218 18341610403996870397
201361 129 18199192793582137313
20708731 107 18265060132517860111
20711985 344 17834947955611088162
20820808 20 18341612603041101577
21501502 16 18337942497589239146
21524375 3 18261667176957192330
22854114 111 18410854318009927825
23402539 116 18130783499379232804
23419403 2 17541434189891182954
25 1 18342738528802254192
251288 83 16878523309820417457
2748010 2 18410015454888572234
276578 36 18412830174653905977
3060560 45 18337389331697678750
458136 41 18339657658862068795
7364860 26 18197778799879771639
81228 2 17759789734577405523

> <PUBCHEM_SHAPE_MULTIPOLES>
283.13
5.28
2.41
1.1
4.36
2.09
-0.14
-3.91
0.37
-0.48
-0.25
-0.06
-0.3
-0.33

> <PUBCHEM_SHAPE_SELFOVERLAP>
578.605

> <PUBCHEM_SHAPE_VOLUME>
162.6

> <PUBCHEM_COORDINATE_TYPE>
2
5
10

$$$$
