53422473
  -OEChem-11232108493D

 43 42  0     1  0  0  0  0  0999 V2000
   -2.1385    1.3005   -0.3396 O   0  0  0  0  0  0  0  0  0  0  0  0
    0.1899    0.9029   -0.3886 O   0  0  0  0  0  0  0  0  0  0  0  0
   -4.7000   -1.4738   -0.0609 C   0  0  0  0  0  0  0  0  0  0  0  0
   -4.0103   -0.1809   -0.5255 C   0  0  0  0  0  0  0  0  0  0  0  0
    3.7474   -0.0030    0.4113 C   0  0  0  0  0  0  0  0  0  0  0  0
    2.4420    0.0868   -0.3774 C   0  0  0  0  0  0  0  0  0  0  0  0
    4.8574   -0.7518   -0.3316 C   0  0  0  0  0  0  0  0  0  0  0  0
   -2.6691    0.0764    0.1512 C   0  0  0  0  0  0  0  0  0  0  0  0
    1.3803    0.8670    0.3866 C   0  0  0  0  0  0  0  0  0  0  0  0
    6.1563   -0.8630    0.4679 C   0  0  0  0  0  0  0  0  0  0  0  0
   -0.8708    1.6181    0.2497 C   0  0  1  0  0  0  0  0  0  0  0  0
   -4.9614   -1.4109    1.4457 C   0  0  0  0  0  0  0  0  0  0  0  0
   -6.0121   -1.7328   -0.8025 C   0  0  0  0  0  0  0  0  0  0  0  0
   -0.6582    3.1139    0.0538 C   0  0  0  0  0  0  0  0  0  0  0  0
    7.2472   -1.5496   -0.3400 C   0  0  0  0  0  0  0  0  0  0  0  0
   -4.0310   -2.3207   -0.2594 H   0  0  0  0  0  0  0  0  0  0  0  0
   -4.6698    0.6811   -0.3583 H   0  0  0  0  0  0  0  0  0  0  0  0
   -3.8549   -0.2188   -1.6116 H   0  0  0  0  0  0  0  0  0  0  0  0
    3.5568   -0.5039    1.3686 H   0  0  0  0  0  0  0  0  0  0  0  0
    4.0983    1.0091    0.6482 H   0  0  0  0  0  0  0  0  0  0  0  0
    2.6181    0.5669   -1.3480 H   0  0  0  0  0  0  0  0  0  0  0  0
    2.0663   -0.9189   -0.6031 H   0  0  0  0  0  0  0  0  0  0  0  0
    5.0582   -0.2377   -1.2799 H   0  0  0  0  0  0  0  0  0  0  0  0
    4.5039   -1.7585   -0.5869 H   0  0  0  0  0  0  0  0  0  0  0  0
   -1.9732   -0.7422   -0.0641 H   0  0  0  0  0  0  0  0  0  0  0  0
   -2.7911    0.1661    1.2347 H   0  0  0  0  0  0  0  0  0  0  0  0
    1.7430    1.8813    0.5797 H   0  0  0  0  0  0  0  0  0  0  0  0
    1.1753    0.3769    1.3455 H   0  0  0  0  0  0  0  0  0  0  0  0
    6.4998    0.1365    0.7586 H   0  0  0  0  0  0  0  0  0  0  0  0
    5.9767   -1.4264    1.3907 H   0  0  0  0  0  0  0  0  0  0  0  0
   -0.9017    1.3939    1.3240 H   0  0  0  0  0  0  0  0  0  0  0  0
   -5.5560   -2.2725    1.7698 H   0  0  0  0  0  0  0  0  0  0  0  0
   -4.0314   -1.4406    2.0209 H   0  0  0  0  0  0  0  0  0  0  0  0
   -5.5113   -0.5042    1.7201 H   0  0  0  0  0  0  0  0  0  0  0  0
   -5.8382   -1.7990   -1.8816 H   0  0  0  0  0  0  0  0  0  0  0  0
   -6.4662   -2.6749   -0.4779 H   0  0  0  0  0  0  0  0  0  0  0  0
   -6.7332   -0.9278   -0.6248 H   0  0  0  0  0  0  0  0  0  0  0  0
   -1.5160    3.6803    0.4315 H   0  0  0  0  0  0  0  0  0  0  0  0
    0.2428    3.4729    0.5582 H   0  0  0  0  0  0  0  0  0  0  0  0
   -0.5536    3.3501   -1.0113 H   0  0  0  0  0  0  0  0  0  0  0  0
    6.9456   -2.5627   -0.6245 H   0  0  0  0  0  0  0  0  0  0  0  0
    7.4723   -0.9884   -1.2526 H   0  0  0  0  0  0  0  0  0  0  0  0
    8.1665   -1.6216    0.2497 H   0  0  0  0  0  0  0  0  0  0  0  0
  1  8  1  0  0  0  0
  1 11  1  0  0  0  0
  2  9  1  0  0  0  0
  2 11  1  0  0  0  0
  3  4  1  0  0  0  0
  3 12  1  0  0  0  0
  3 13  1  0  0  0  0
  3 16  1  0  0  0  0
  4  8  1  0  0  0  0
  4 17  1  0  0  0  0
  4 18  1  0  0  0  0
  5  6  1  0  0  0  0
  5  7  1  0  0  0  0
  5 19  1  0  0  0  0
  5 20  1  0  0  0  0
  6  9  1  0  0  0  0
  6 21  1  0  0  0  0
  6 22  1  0  0  0  0
  7 10  1  0  0  0  0
  7 23  1  0  0  0  0
  7 24  1  0  0  0  0
  8 25  1  0  0  0  0
  8 26  1  0  0  0  0
  9 27  1  0  0  0  0
  9 28  1  0  0  0  0
 10 15  1  0  0  0  0
 10 29  1  0  0  0  0
 10 30  1  0  0  0  0
 11 14  1  0  0  0  0
 11 31  1  0  0  0  0
 12 32  1  0  0  0  0
 12 33  1  0  0  0  0
 12 34  1  0  0  0  0
 13 35  1  0  0  0  0
 13 36  1  0  0  0  0
 13 37  1  0  0  0  0
 14 38  1  0  0  0  0
 14 39  1  0  0  0  0
 14 40  1  0  0  0  0
 15 41  1  0  0  0  0
 15 42  1  0  0  0  0
 15 43  1  0  0  0  0
M  END
> <PUBCHEM_COMPOUND_CID>
53422473

> <PUBCHEM_CONFORMER_RMSD>
1.2

> <PUBCHEM_CONFORMER_DIVERSEORDER>
1
25
35
14
40
33
23
42
58
17
24
46
39
57
66
48
64
4
8
12
18
21
31
55
6
22
19
59
56
30
45
5
62
54
29
37
41
43
60
3
36
11
15
61
50
32
9
26
65
2
7
38
20
63
13
51
10
52
44
34
16
28
53
27
49
47

> <PUBCHEM_MMFF94_PARTIAL_CHARGES>
5
1 -0.56
11 0.56
2 -0.56
8 0.28
9 0.28

> <PUBCHEM_EFFECTIVE_ROTOR_COUNT>
10

> <PUBCHEM_PHARMACOPHORE_FEATURES>
5
1 1 acceptor
1 15 hydrophobe
1 2 acceptor
3 3 12 13 hydrophobe
4 5 6 7 10 hydrophobe

> <PUBCHEM_HEAVY_ATOM_COUNT>
15

> <PUBCHEM_ATOM_DEF_STEREO_COUNT>
0

> <PUBCHEM_ATOM_UDEF_STEREO_COUNT>
1

> <PUBCHEM_BOND_DEF_STEREO_COUNT>
0

> <PUBCHEM_BOND_UDEF_STEREO_COUNT>
0

> <PUBCHEM_ISOTOPIC_ATOM_COUNT>
0

> <PUBCHEM_COMPONENT_COUNT>
1

> <PUBCHEM_CACTVS_TAUTO_COUNT>
1

> <PUBCHEM_CONFORMER_ID>
032F298900000001

> <PUBCHEM_MMFF94_ENERGY>
13.9395

> <PUBCHEM_FEATURE_SELFOVERLAP>
25.411

> <PUBCHEM_SHAPE_FINGERPRINT>
100836 57 9583520931866730734
117890 112 8790880788143714346
12596602 18 16630809932351408187
12760667 363 18410013243291410947
13288520 33 18410855438695744277
13740256 8 18410856585446705049
13862211 1 18412825810840864151
13964095 4 17894623730824181605
14123255 352 10015588294009228963
14123256 34 18409172125127634666
1420 363 18343302557319961454
14251732 16 18412823595560691056
14251740 79 17313111873083395323
14729087 3 8502367820371612278
15048467 5 9367343739291188278
17780758 139 17846783992541852675
17870717 6 17385439947519884035
193927 3 18336555979235167191
20281389 69 10375868576471386742
20374829 77 18410290311505055749
20621476 21 17604442923955777315
20645477 56 9079107869501791044
20645477 70 18119517993935948005
21054139 6 18040716931802772970
21150785 3 17821737135368713014
21426921 1 18265614286547590356
22288116 15 13190634879017271475
22896161 15 18411418419752893852
23402539 116 18334294232356625020
23402655 69 11963384159063251881
23559900 14 17895475958961277821
23590187 135 18411699881164272742
270888 7 9150907070012877055
2767999 5 9367348115287999434
2838139 119 11025794318765212246
2916195 48 8430312441724009983
3004659 81 17967527991042457006
3014063 24 17988354970899164567
351380 3 18411134753283020383
559249 180 18412262831708466175
59682541 52 13696135260072626426
77188 2 18340485668232841537

> <PUBCHEM_SHAPE_MULTIPOLES>
296.95
17.68
2.39
0.89
16.16
1.68
0.18
-17.03
-0.5
-1.56
-0.01
-0.82
-0.28
0.27

> <PUBCHEM_SHAPE_SELFOVERLAP>
534.899

> <PUBCHEM_SHAPE_VOLUME>
192.2

> <PUBCHEM_COORDINATE_TYPE>
2
5
10

$$$$
