53425122
  -OEChem-11232109173D

 20 19  0     0  0  0  0  0  0999 V2000
   -0.6199   -1.2569    0.3069 S   0  0  0  0  0  0  0  0  0  0  0  0
    1.8177    0.8656   -0.1455 S   0  0  0  0  0  0  0  0  0  0  0  0
    0.3816   -0.2089   -1.1466 S   0  0  0  0  0  0  0  0  0  0  0  0
   -3.0726   -0.1544   -0.2652 C   0  0  0  0  0  0  0  0  0  0  0  0
   -1.9390   -0.0922    0.7524 C   0  0  0  0  0  0  0  0  0  0  0  0
   -4.1884    0.8146    0.0980 C   0  0  0  0  0  0  0  0  0  0  0  0
    3.2116   -0.2875   -0.1530 C   0  0  0  0  0  0  0  0  0  0  0  0
    4.4090    0.3196    0.5530 C   0  0  0  0  0  0  0  0  0  0  0  0
   -3.4888   -1.1681   -0.3117 H   0  0  0  0  0  0  0  0  0  0  0  0
   -2.7124    0.0979   -1.2692 H   0  0  0  0  0  0  0  0  0  0  0  0
   -2.3159   -0.3859    1.7382 H   0  0  0  0  0  0  0  0  0  0  0  0
   -1.5370    0.9216    0.8524 H   0  0  0  0  0  0  0  0  0  0  0  0
   -4.6083    0.5789    1.0810 H   0  0  0  0  0  0  0  0  0  0  0  0
   -3.8210    1.8456    0.1187 H   0  0  0  0  0  0  0  0  0  0  0  0
   -4.9956    0.7565   -0.6389 H   0  0  0  0  0  0  0  0  0  0  0  0
    2.9241   -1.2135    0.3552 H   0  0  0  0  0  0  0  0  0  0  0  0
    3.4825   -0.5252   -1.1867 H   0  0  0  0  0  0  0  0  0  0  0  0
    4.7448    1.2377    0.0588 H   0  0  0  0  0  0  0  0  0  0  0  0
    4.1847    0.5496    1.6002 H   0  0  0  0  0  0  0  0  0  0  0  0
    5.2460   -0.3866    0.5418 H   0  0  0  0  0  0  0  0  0  0  0  0
  1  3  1  0  0  0  0
  1  5  1  0  0  0  0
  2  3  1  0  0  0  0
  2  7  1  0  0  0  0
  4  5  1  0  0  0  0
  4  6  1  0  0  0  0
  4  9  1  0  0  0  0
  4 10  1  0  0  0  0
  5 11  1  0  0  0  0
  5 12  1  0  0  0  0
  6 13  1  0  0  0  0
  6 14  1  0  0  0  0
  6 15  1  0  0  0  0
  7  8  1  0  0  0  0
  7 16  1  0  0  0  0
  7 17  1  0  0  0  0
  8 18  1  0  0  0  0
  8 19  1  0  0  0  0
  8 20  1  0  0  0  0
M  END
> <PUBCHEM_COMPOUND_CID>
53425122

> <PUBCHEM_CONFORMER_RMSD>
0.6

> <PUBCHEM_CONFORMER_DIVERSEORDER>
1
294
125
171
222
225
257
295
67
198
154
212
51
251
160
248
202
235
157
216
35
297
290
169
162
207
178
104
200
55
247
86
135
184
31
208
296
62
265
56
259
147
272
228
139
161
142
269
186
89
271
201
133
126
211
116
151
38
224
183
193
60
244
252
105
194
177
84
219
179
206
113
3
143
68
241
8
101
45
217
65
287
175
14
258
264
172
37
7
88
47
34
230
77
218
79
291
274
10
16
102
238
189
11
220
152
74
279
182
149
285
187
159
273
245
233
199
240
72
82
129
277
19
229
188
22
242
288
145
138
141
253
24
103
29
292
286
87
9
158
39
226
249
5
91
196
170
85
121
237
215
96
66
260
176
214
13
81
289
4
261
114
197
6
122
190
2
71
153
221
49
263
234
270
117
209
232
163
213
146
181
150
42
164
281
250
255
136
120
92
52
298
115
98
61
266
191
275
195
28
231
119
107
132
97
155
293
166
165
174
123
278
267
148
246
109
110
12
203
239
44
254
100
83
69
276
262
40
99
20
137
70
23
111
46
180
243
124
57
30
167
280
205
59
127
112
284
168
210
64
50
144
26
227
130
27
21
236
256
36
268
63
134
140
93
33
185
54
41
204
282
131
43
95
80
78
192
73
75
223
283
58
94
90
15
32
25
106
18
17
118
173
76
128
156
53
108
48

> <PUBCHEM_MMFF94_PARTIAL_CHARGES>
4
1 -0.23
2 -0.23
5 0.23
7 0.23

> <PUBCHEM_EFFECTIVE_ROTOR_COUNT>
5

> <PUBCHEM_PHARMACOPHORE_FEATURES>
4
1 6 hydrophobe
1 8 hydrophobe
3 1 4 5 hydrophobe
3 2 3 7 hydrophobe

> <PUBCHEM_HEAVY_ATOM_COUNT>
8

> <PUBCHEM_ATOM_DEF_STEREO_COUNT>
0

> <PUBCHEM_ATOM_UDEF_STEREO_COUNT>
0

> <PUBCHEM_BOND_DEF_STEREO_COUNT>
0

> <PUBCHEM_BOND_UDEF_STEREO_COUNT>
0

> <PUBCHEM_ISOTOPIC_ATOM_COUNT>
0

> <PUBCHEM_COMPONENT_COUNT>
1

> <PUBCHEM_CACTVS_TAUTO_COUNT>
1

> <PUBCHEM_CONFORMER_ID>
032F33E200000001

> <PUBCHEM_MMFF94_ENERGY>
-15.0568

> <PUBCHEM_FEATURE_SELFOVERLAP>
20.311

> <PUBCHEM_SHAPE_FINGERPRINT>
11062470 55 17917993879851561272
15501527 24 13686289197253482305
17834069 15 17676201351481783447
18342897 14 18334575750404275900
18511873 20 18040999569992544240
190213 19 13262395574613505686
20651381 17 17775008993892235670
20719005 15 11530483328457377568
21119208 17 15841551864376742209
21293036 1 13470687044399550126
22485316 2 15285355145885780848
23402539 116 18343013402867775389
528716 315 11023833872373740739
58999712 33 18260263040521197681

> <PUBCHEM_SHAPE_MULTIPOLES>
176.18
8.24
1.08
0.96
1.16
0.13
0.15
-2.17
-1.51
-0.23
-0.05
0.09
0.04
0.06

> <PUBCHEM_SHAPE_SELFOVERLAP>
271.087

> <PUBCHEM_SHAPE_VOLUME>
128.2

> <PUBCHEM_COORDINATE_TYPE>
2
5
10

$$$$
