53425775
  -OEChem-11232109063D

 33 32  0     0  0  0  0  0  0999 V2000
   -3.9711    0.4932   -1.4922 S   0  0  0  0  0  0  0  0  0  0  0  0
    0.2947   -0.5022   -0.1461 O   0  0  0  0  0  0  0  0  0  0  0  0
    1.4377    1.4432   -0.6244 O   0  0  0  0  0  0  0  0  0  0  0  0
   -3.5095   -0.1215    0.1782 C   0  0  0  0  0  0  0  0  0  0  0  0
   -2.0911   -0.7355    0.1620 C   0  0  0  0  0  0  0  0  0  0  0  0
   -0.9390    0.2232   -0.1394 C   0  0  0  0  0  0  0  0  0  0  0  0
    3.9268    0.0493   -0.0559 C   0  0  0  0  0  0  0  0  0  0  0  0
   -3.6164    1.0501    1.1619 C   0  0  0  0  0  0  0  0  0  0  0  0
   -4.5259   -1.2062    0.5671 C   0  0  0  0  0  0  0  0  0  0  0  0
    2.6191   -0.6737   -0.4147 C   0  0  0  0  0  0  0  0  0  0  0  0
    1.4121    0.2399   -0.4045 C   0  0  0  0  0  0  0  0  0  0  0  0
    3.8595    0.6659    1.3435 C   0  0  0  0  0  0  0  0  0  0  0  0
    5.1032   -0.9255   -0.1355 C   0  0  0  0  0  0  0  0  0  0  0  0
   -2.0494   -1.5699   -0.5524 H   0  0  0  0  0  0  0  0  0  0  0  0
   -1.8888   -1.2002    1.1375 H   0  0  0  0  0  0  0  0  0  0  0  0
   -1.0709    0.6952   -1.1185 H   0  0  0  0  0  0  0  0  0  0  0  0
   -0.8798    0.9998    0.6306 H   0  0  0  0  0  0  0  0  0  0  0  0
    4.0997    0.8578   -0.7773 H   0  0  0  0  0  0  0  0  0  0  0  0
   -2.9891    1.8994    0.8698 H   0  0  0  0  0  0  0  0  0  0  0  0
   -4.6469    1.4161    1.2450 H   0  0  0  0  0  0  0  0  0  0  0  0
   -3.3035    0.7404    2.1659 H   0  0  0  0  0  0  0  0  0  0  0  0
   -4.4978   -2.0558   -0.1255 H   0  0  0  0  0  0  0  0  0  0  0  0
   -4.3101   -1.5972    1.5685 H   0  0  0  0  0  0  0  0  0  0  0  0
   -5.5517   -0.8193    0.5874 H   0  0  0  0  0  0  0  0  0  0  0  0
    2.4493   -1.4864    0.3027 H   0  0  0  0  0  0  0  0  0  0  0  0
    2.6888   -1.1142   -1.4158 H   0  0  0  0  0  0  0  0  0  0  0  0
    3.6485   -0.0957    2.1022 H   0  0  0  0  0  0  0  0  0  0  0  0
    4.8126    1.1406    1.6012 H   0  0  0  0  0  0  0  0  0  0  0  0
    3.0858    1.4360    1.4136 H   0  0  0  0  0  0  0  0  0  0  0  0
    4.9877   -1.7494    0.5770 H   0  0  0  0  0  0  0  0  0  0  0  0
    5.1842   -1.3544   -1.1399 H   0  0  0  0  0  0  0  0  0  0  0  0
    6.0467   -0.4155    0.0863 H   0  0  0  0  0  0  0  0  0  0  0  0
   -5.2003    0.9234   -1.1710 H   0  0  0  0  0  0  0  0  0  0  0  0
  1  4  1  0  0  0  0
  1 33  1  0  0  0  0
  2  6  1  0  0  0  0
  2 11  1  0  0  0  0
  3 11  2  0  0  0  0
  4  5  1  0  0  0  0
  4  8  1  0  0  0  0
  4  9  1  0  0  0  0
  5  6  1  0  0  0  0
  5 14  1  0  0  0  0
  5 15  1  0  0  0  0
  6 16  1  0  0  0  0
  6 17  1  0  0  0  0
  7 10  1  0  0  0  0
  7 12  1  0  0  0  0
  7 13  1  0  0  0  0
  7 18  1  0  0  0  0
  8 19  1  0  0  0  0
  8 20  1  0  0  0  0
  8 21  1  0  0  0  0
  9 22  1  0  0  0  0
  9 23  1  0  0  0  0
  9 24  1  0  0  0  0
 10 11  1  0  0  0  0
 10 25  1  0  0  0  0
 10 26  1  0  0  0  0
 12 27  1  0  0  0  0
 12 28  1  0  0  0  0
 12 29  1  0  0  0  0
 13 30  1  0  0  0  0
 13 31  1  0  0  0  0
 13 32  1  0  0  0  0
M  END
> <PUBCHEM_COMPOUND_CID>
53425775

> <PUBCHEM_CONFORMER_RMSD>
0.8

> <PUBCHEM_CONFORMER_DIVERSEORDER>
1
39
115
131
36
92
119
62
149
63
138
7
89
144
3
42
102
41
128
67
136
104
86
52
113
6
158
47
20
60
79
116
151
107
25
99
48
23
91
27
150
64
15
17
125
122
153
61
57
65
129
132
112
18
120
43
148
98
126
74
68
38
152
94
88
145
97
90
69
134
34
108
75
110
78
59
46
118
29
147
109
142
45
26
85
140
96
121
93
106
114
95
83
51
19
13
141
135
56
111
50
33
49
4
11
44
130
84
76
70
154
82
2
8
14
5
127
146
28
77
155
35
32
24
53
37
159
40
103
80
133
105
100
71
157
73
58
143
87
55
101
10
54
16
124
12
156
30
9
123
31
72
139
66
117
22
81
137
160
21

> <PUBCHEM_MMFF94_PARTIAL_CHARGES>
8
1 -0.41
10 0.06
11 0.66
2 -0.43
3 -0.57
33 0.18
4 0.23
6 0.28

> <PUBCHEM_EFFECTIVE_ROTOR_COUNT>
6

> <PUBCHEM_PHARMACOPHORE_FEATURES>
3
1 3 acceptor
3 4 8 9 hydrophobe
3 7 12 13 hydrophobe

> <PUBCHEM_HEAVY_ATOM_COUNT>
13

> <PUBCHEM_ATOM_DEF_STEREO_COUNT>
0

> <PUBCHEM_ATOM_UDEF_STEREO_COUNT>
0

> <PUBCHEM_BOND_DEF_STEREO_COUNT>
0

> <PUBCHEM_BOND_UDEF_STEREO_COUNT>
0

> <PUBCHEM_ISOTOPIC_ATOM_COUNT>
0

> <PUBCHEM_COMPONENT_COUNT>
1

> <PUBCHEM_CACTVS_TAUTO_COUNT>
1

> <PUBCHEM_CONFORMER_ID>
032F366F00000001

> <PUBCHEM_MMFF94_ENERGY>
21.4371

> <PUBCHEM_FEATURE_SELFOVERLAP>
15.223

> <PUBCHEM_SHAPE_FINGERPRINT>
10680689 15 17240769475600788311
10912923 1 15213017150402028092
114248 4 12252190675360986986
11987891 38 13984379968018670376
124424 183 17675922092966686405
12916754 54 18041849531684017045
13167823 11 16773793684296611894
13675066 3 18342739632508531466
14123238 8 18408044034686971310
14252887 29 18410017611363016546
17834072 33 18187370981983159206
17834074 16 13912323477602870888
18186145 218 18408890620101678227
190213 19 18411138039175244143
1986462 14 17530964687769061111
200 152 18272363196840967247
20279233 1 18113336392971538711
20645477 56 15554457258552048377
20645477 70 12901536924067622944
20828058 21 17095522894144006158
22485316 2 13190339075844946832
2306618 200 18187365403227323581
23402539 116 16630521808722631137
23402655 69 8142091948344988602
23532345 12 18409173224549435693
265663 24 16630802214431716574
2916195 48 9439107733665289838
300161 21 13038910988951973323
42 15 18343025488383545642
90127 26 17095248020532270044

> <PUBCHEM_SHAPE_MULTIPOLES>
259.64
11.43
1.16
1.15
3.63
0.35
-0.27
-0.73
1.7
0.07
0.17
-1.06
-0.02
0.01

> <PUBCHEM_SHAPE_SELFOVERLAP>
473.839

> <PUBCHEM_SHAPE_VOLUME>
168.2

> <PUBCHEM_COORDINATE_TYPE>
2
5
10

$$$$
