53424394
  -OEChem-11232109263D

 41 40  0     0  0  0  0  0  0999 V2000
    0.0528   -1.9719   -0.3814 O   0  0  0  0  0  0  0  0  0  0  0  0
   -0.0652   -1.3511    1.8269 O   0  0  0  0  0  0  0  0  0  0  0  0
    0.0009    0.3787    0.0839 C   0  0  0  0  0  0  0  0  0  0  0  0
   -1.2731    0.5749   -0.7984 C   0  0  0  0  0  0  0  0  0  0  0  0
    1.2783    0.5820   -0.7886 C   0  0  0  0  0  0  0  0  0  0  0  0
   -0.0420    1.3636    1.2918 C   0  0  0  0  0  0  0  0  0  0  0  0
   -2.6122    0.3236   -0.0864 C   0  0  0  0  0  0  0  0  0  0  0  0
    2.6163    0.3139   -0.0782 C   0  0  0  0  0  0  0  0  0  0  0  0
   -0.0213   -1.0628    0.6368 C   0  0  0  0  0  0  0  0  0  0  0  0
   -0.0273    2.8484    0.9427 C   0  0  0  0  0  0  0  0  0  0  0  0
   -3.8213    0.4591   -1.0179 C   0  0  0  0  0  0  0  0  0  0  0  0
    3.8270    0.4660   -1.0050 C   0  0  0  0  0  0  0  0  0  0  0  0
   -5.1506    0.1752   -0.3355 C   0  0  0  0  0  0  0  0  0  0  0  0
    5.1591    0.2475   -0.3043 C   0  0  0  0  0  0  0  0  0  0  0  0
    0.0786   -3.3473    0.0135 C   0  0  0  0  0  0  0  0  0  0  0  0
   -1.2779    1.5833   -1.2297 H   0  0  0  0  0  0  0  0  0  0  0  0
   -1.2187   -0.1070   -1.6581 H   0  0  0  0  0  0  0  0  0  0  0  0
    1.2884    1.5978   -1.2018 H   0  0  0  0  0  0  0  0  0  0  0  0
    1.2248   -0.0838   -1.6607 H   0  0  0  0  0  0  0  0  0  0  0  0
   -0.9186    1.1636    1.9197 H   0  0  0  0  0  0  0  0  0  0  0  0
    0.8137    1.1672    1.9507 H   0  0  0  0  0  0  0  0  0  0  0  0
   -2.6220   -0.6808    0.3515 H   0  0  0  0  0  0  0  0  0  0  0  0
   -2.7395    1.0349    0.7364 H   0  0  0  0  0  0  0  0  0  0  0  0
    2.7322    1.0096    0.7601 H   0  0  0  0  0  0  0  0  0  0  0  0
    2.6226   -0.6982    0.3419 H   0  0  0  0  0  0  0  0  0  0  0  0
    0.8776    3.1289    0.3974 H   0  0  0  0  0  0  0  0  0  0  0  0
   -0.0491    3.4419    1.8631 H   0  0  0  0  0  0  0  0  0  0  0  0
   -0.8997    3.1362    0.3503 H   0  0  0  0  0  0  0  0  0  0  0  0
   -3.7066   -0.2298   -1.8633 H   0  0  0  0  0  0  0  0  0  0  0  0
   -3.8455    1.4729   -1.4350 H   0  0  0  0  0  0  0  0  0  0  0  0
    3.8218    1.4698   -1.4464 H   0  0  0  0  0  0  0  0  0  0  0  0
    3.7410   -0.2466   -1.8339 H   0  0  0  0  0  0  0  0  0  0  0  0
   -5.3185    0.8685    0.4946 H   0  0  0  0  0  0  0  0  0  0  0  0
   -5.1764   -0.8456    0.0588 H   0  0  0  0  0  0  0  0  0  0  0  0
   -5.9750    0.2875   -1.0465 H   0  0  0  0  0  0  0  0  0  0  0  0
    5.2157   -0.7600    0.1199 H   0  0  0  0  0  0  0  0  0  0  0  0
    5.9855    0.3671   -1.0118 H   0  0  0  0  0  0  0  0  0  0  0  0
    5.2966    0.9698    0.5065 H   0  0  0  0  0  0  0  0  0  0  0  0
    0.9595   -3.5471    0.6310 H   0  0  0  0  0  0  0  0  0  0  0  0
   -0.8387   -3.6036    0.5519 H   0  0  0  0  0  0  0  0  0  0  0  0
    0.1376   -3.9591   -0.8905 H   0  0  0  0  0  0  0  0  0  0  0  0
  1  9  1  0  0  0  0
  1 15  1  0  0  0  0
  2  9  2  0  0  0  0
  3  4  1  0  0  0  0
  3  5  1  0  0  0  0
  3  6  1  0  0  0  0
  3  9  1  0  0  0  0
  4  7  1  0  0  0  0
  4 16  1  0  0  0  0
  4 17  1  0  0  0  0
  5  8  1  0  0  0  0
  5 18  1  0  0  0  0
  5 19  1  0  0  0  0
  6 10  1  0  0  0  0
  6 20  1  0  0  0  0
  6 21  1  0  0  0  0
  7 11  1  0  0  0  0
  7 22  1  0  0  0  0
  7 23  1  0  0  0  0
  8 12  1  0  0  0  0
  8 24  1  0  0  0  0
  8 25  1  0  0  0  0
 10 26  1  0  0  0  0
 10 27  1  0  0  0  0
 10 28  1  0  0  0  0
 11 13  1  0  0  0  0
 11 29  1  0  0  0  0
 11 30  1  0  0  0  0
 12 14  1  0  0  0  0
 12 31  1  0  0  0  0
 12 32  1  0  0  0  0
 13 33  1  0  0  0  0
 13 34  1  0  0  0  0
 13 35  1  0  0  0  0
 14 36  1  0  0  0  0
 14 37  1  0  0  0  0
 14 38  1  0  0  0  0
 15 39  1  0  0  0  0
 15 40  1  0  0  0  0
 15 41  1  0  0  0  0
M  END
> <PUBCHEM_COMPOUND_CID>
53424394

> <PUBCHEM_CONFORMER_RMSD>
0.8

> <PUBCHEM_CONFORMER_DIVERSEORDER>
1
65
59
157
46
24
30
48
14
45
35
159
113
116
75
94
86
123
96
98
152
146
92
150
29
72
44
38
140
55
121
122
132
82
148
115
149
127
125
156
83
117
158
164
111
76
106
144
17
95
142
88
104
124
107
77
108
40
60
138
69
119
147
52
26
70
163
110
128
41
134
126
90
15
36
97
162
161
120
154
18
62
58
145
141
47
93
74
105
101
99
49
33
112
78
50
103
139
19
79
57
160
114
23
131
153
61
143
85
102
56
4
7
3
32
135
84
16
136
155
118
43
129
28
13
64
6
39
66
73
22
91
34
80
109
25
63
130
27
8
10
68
20
53
21
89
87
2
42
100
67
12
133
54
31
37
151
71
137
81
11
5
9
51

> <PUBCHEM_MMFF94_PARTIAL_CHARGES>
5
1 -0.43
15 0.28
2 -0.57
3 0.06
9 0.66

> <PUBCHEM_EFFECTIVE_ROTOR_COUNT>
9

> <PUBCHEM_PHARMACOPHORE_FEATURES>
6
1 10 hydrophobe
1 13 hydrophobe
1 14 hydrophobe
1 2 acceptor
5 3 4 6 7 11 hydrophobe
5 3 5 6 8 12 hydrophobe

> <PUBCHEM_HEAVY_ATOM_COUNT>
15

> <PUBCHEM_ATOM_DEF_STEREO_COUNT>
0

> <PUBCHEM_ATOM_UDEF_STEREO_COUNT>
0

> <PUBCHEM_BOND_DEF_STEREO_COUNT>
0

> <PUBCHEM_BOND_UDEF_STEREO_COUNT>
0

> <PUBCHEM_ISOTOPIC_ATOM_COUNT>
0

> <PUBCHEM_COMPONENT_COUNT>
1

> <PUBCHEM_CACTVS_TAUTO_COUNT>
1

> <PUBCHEM_CONFORMER_ID>
032F310A00000001

> <PUBCHEM_MMFF94_ENERGY>
19.3222

> <PUBCHEM_FEATURE_SELFOVERLAP>
30.454

> <PUBCHEM_SHAPE_FINGERPRINT>
10756046 5 17836085576430732925
10922049 32 17821729442053546495
11315181 36 18336839658595906084
12119455 92 17676204671507256244
12592029 89 17458622272832376832
12715332 25 18339647853129985159
13533116 47 18271239427449185522
14115302 16 18336271240579489372
14713566 1 18408889563935316944
14911166 2 18413107285769946132
14943834 7 17693945089652665248
16945 1 18411419505335355253
18186145 218 18339912800967156261
187816 3 18342178868957389996
200 152 15482675663191413108
20344682 1 17894347774479643109
21521721 280 18338243772797616769
21524375 3 18040435490367752804
22713019 99 18272091599708769004
23402539 116 18202282485538389508
23419403 2 16986307450685274530
23559900 14 18342457101935502900
298252 57 18114179756770338074
3060560 45 18270664451101662333
3250762 1 17693090077628194049
366044 4 18334857229454381934
69090 78 18260828224253245566
81228 2 17916610668924059648
81539 233 17822568317960096999

> <PUBCHEM_SHAPE_MULTIPOLES>
296.95
7.49
2.54
1.22
0.06
1.6
-0.32
-1.63
3.34
0.05
-0.87
-0.03
-0.13
-0.01

> <PUBCHEM_SHAPE_SELFOVERLAP>
549.337

> <PUBCHEM_SHAPE_VOLUME>
188.1

> <PUBCHEM_COORDINATE_TYPE>
2
5
10

$$$$
