53437836
  -OEChem-11232108553D

 50 49  0     0  0  0  0  0  0999 V2000
    3.0917    1.3100   -0.7140 O   0  0  0  0  0  0  0  0  0  0  0  0
    4.3008    0.8210    1.1885 O   0  0  0  0  0  0  0  0  0  0  0  0
   -2.1734    1.1218   -0.3527 C   0  0  0  0  0  0  0  0  0  0  0  0
   -1.0362    1.6189    0.5421 C   0  0  0  0  0  0  0  0  0  0  0  0
   -3.4960    0.9252    0.3946 C   0  0  0  0  0  0  0  0  0  0  0  0
    0.2500    1.8279   -0.2612 C   0  0  0  0  0  0  0  0  0  0  0  0
   -4.6787    0.4492   -0.4545 C   0  0  0  0  0  0  0  0  0  0  0  0
    1.3809    2.3533    0.6280 C   0  0  0  0  0  0  0  0  0  0  0  0
   -5.9831    0.3253    0.3334 C   0  0  0  0  0  0  0  0  0  0  0  0
    2.1115   -1.9260    0.1205 C   0  0  0  0  0  0  0  0  0  0  0  0
    2.6801    2.5446   -0.1450 C   0  0  0  0  0  0  0  0  0  0  0  0
    2.9798   -1.5330   -1.0788 C   0  0  0  0  0  0  0  0  0  0  0  0
    0.8578   -2.6809   -0.3262 C   0  0  0  0  0  0  0  0  0  0  0  0
    4.2270   -0.7520   -0.6654 C   0  0  0  0  0  0  0  0  0  0  0  0
   -0.0242   -3.0492    0.8667 C   0  0  0  0  0  0  0  0  0  0  0  0
   -7.1429   -0.0616   -0.5716 C   0  0  0  0  0  0  0  0  0  0  0  0
    3.9095    0.5338    0.0656 C   0  0  0  0  0  0  0  0  0  0  0  0
   -1.2547   -3.8283    0.4302 C   0  0  0  0  0  0  0  0  0  0  0  0
   -1.8820    0.1711   -0.8163 H   0  0  0  0  0  0  0  0  0  0  0  0
   -2.3314    1.8370   -1.1694 H   0  0  0  0  0  0  0  0  0  0  0  0
   -0.8574    0.8927    1.3443 H   0  0  0  0  0  0  0  0  0  0  0  0
   -1.3308    2.5620    1.0177 H   0  0  0  0  0  0  0  0  0  0  0  0
   -3.7692    1.8747    0.8724 H   0  0  0  0  0  0  0  0  0  0  0  0
   -3.3367    0.2055    1.2077 H   0  0  0  0  0  0  0  0  0  0  0  0
    0.0657    2.5400   -1.0747 H   0  0  0  0  0  0  0  0  0  0  0  0
    0.5418    0.8780   -0.7239 H   0  0  0  0  0  0  0  0  0  0  0  0
   -4.8224    1.1543   -1.2828 H   0  0  0  0  0  0  0  0  0  0  0  0
   -4.4302   -0.5199   -0.9045 H   0  0  0  0  0  0  0  0  0  0  0  0
    1.5445    1.6432    1.4474 H   0  0  0  0  0  0  0  0  0  0  0  0
    1.0855    3.3090    1.0763 H   0  0  0  0  0  0  0  0  0  0  0  0
   -6.2136    1.2785    0.8230 H   0  0  0  0  0  0  0  0  0  0  0  0
   -5.8692   -0.4265    1.1228 H   0  0  0  0  0  0  0  0  0  0  0  0
    2.6954   -2.5520    0.8061 H   0  0  0  0  0  0  0  0  0  0  0  0
    1.8082   -1.0328    0.6785 H   0  0  0  0  0  0  0  0  0  0  0  0
    2.3838   -0.9396   -1.7826 H   0  0  0  0  0  0  0  0  0  0  0  0
    3.2927   -2.4375   -1.6142 H   0  0  0  0  0  0  0  0  0  0  0  0
    3.4578    2.9769    0.4955 H   0  0  0  0  0  0  0  0  0  0  0  0
    2.5258    3.2497   -0.9692 H   0  0  0  0  0  0  0  0  0  0  0  0
    1.1504   -3.5908   -0.8640 H   0  0  0  0  0  0  0  0  0  0  0  0
    0.2845   -2.0610   -1.0265 H   0  0  0  0  0  0  0  0  0  0  0  0
    4.8504   -1.3691   -0.0078 H   0  0  0  0  0  0  0  0  0  0  0  0
    4.8335   -0.5037   -1.5434 H   0  0  0  0  0  0  0  0  0  0  0  0
   -0.3407   -2.1393    1.3900 H   0  0  0  0  0  0  0  0  0  0  0  0
    0.5478   -3.6527    1.5810 H   0  0  0  0  0  0  0  0  0  0  0  0
   -7.3024    0.6920   -1.3495 H   0  0  0  0  0  0  0  0  0  0  0  0
   -6.9561   -1.0242   -1.0582 H   0  0  0  0  0  0  0  0  0  0  0  0
   -8.0652   -0.1485    0.0111 H   0  0  0  0  0  0  0  0  0  0  0  0
   -0.9726   -4.7604   -0.0696 H   0  0  0  0  0  0  0  0  0  0  0  0
   -1.8668   -3.2390   -0.2601 H   0  0  0  0  0  0  0  0  0  0  0  0
   -1.8708   -4.0813    1.2988 H   0  0  0  0  0  0  0  0  0  0  0  0
  1 11  1  0  0  0  0
  1 17  1  0  0  0  0
  2 17  2  0  0  0  0
  3  4  1  0  0  0  0
  3  5  1  0  0  0  0
  3 19  1  0  0  0  0
  3 20  1  0  0  0  0
  4  6  1  0  0  0  0
  4 21  1  0  0  0  0
  4 22  1  0  0  0  0
  5  7  1  0  0  0  0
  5 23  1  0  0  0  0
  5 24  1  0  0  0  0
  6  8  1  0  0  0  0
  6 25  1  0  0  0  0
  6 26  1  0  0  0  0
  7  9  1  0  0  0  0
  7 27  1  0  0  0  0
  7 28  1  0  0  0  0
  8 11  1  0  0  0  0
  8 29  1  0  0  0  0
  8 30  1  0  0  0  0
  9 16  1  0  0  0  0
  9 31  1  0  0  0  0
  9 32  1  0  0  0  0
 10 12  1  0  0  0  0
 10 13  1  0  0  0  0
 10 33  1  0  0  0  0
 10 34  1  0  0  0  0
 11 37  1  0  0  0  0
 11 38  1  0  0  0  0
 12 14  1  0  0  0  0
 12 35  1  0  0  0  0
 12 36  1  0  0  0  0
 13 15  1  0  0  0  0
 13 39  1  0  0  0  0
 13 40  1  0  0  0  0
 14 17  1  0  0  0  0
 14 41  1  0  0  0  0
 14 42  1  0  0  0  0
 15 18  1  0  0  0  0
 15 43  1  0  0  0  0
 15 44  1  0  0  0  0
 16 45  1  0  0  0  0
 16 46  1  0  0  0  0
 16 47  1  0  0  0  0
 18 48  1  0  0  0  0
 18 49  1  0  0  0  0
 18 50  1  0  0  0  0
M  END
> <PUBCHEM_COMPOUND_CID>
53437836

> <PUBCHEM_CONFORMER_RMSD>
1.4

> <PUBCHEM_CONFORMER_DIVERSEORDER>
1
2
31
29
17
38
6
7
53
48
4
50
22
27
21
14
25
46
3
24
47
45
36
51
35
32
33
20
37
26
41
43
30
23
42
15
12
44
52
11
49
5
8
10
40
9
13
39
34
19
28
18
16

> <PUBCHEM_MMFF94_PARTIAL_CHARGES>
5
1 -0.43
11 0.28
14 0.06
17 0.66
2 -0.57

> <PUBCHEM_EFFECTIVE_ROTOR_COUNT>
14

> <PUBCHEM_PHARMACOPHORE_FEATURES>
4
1 16 hydrophobe
1 18 hydrophobe
1 2 acceptor
5 10 12 13 14 15 hydrophobe

> <PUBCHEM_HEAVY_ATOM_COUNT>
18

> <PUBCHEM_ATOM_DEF_STEREO_COUNT>
0

> <PUBCHEM_ATOM_UDEF_STEREO_COUNT>
0

> <PUBCHEM_BOND_DEF_STEREO_COUNT>
0

> <PUBCHEM_BOND_UDEF_STEREO_COUNT>
0

> <PUBCHEM_ISOTOPIC_ATOM_COUNT>
0

> <PUBCHEM_COMPONENT_COUNT>
1

> <PUBCHEM_CACTVS_TAUTO_COUNT>
1

> <PUBCHEM_CONFORMER_ID>
032F658C00000001

> <PUBCHEM_MMFF94_ENERGY>
-0.8211

> <PUBCHEM_FEATURE_SELFOVERLAP>
20.297

> <PUBCHEM_SHAPE_FINGERPRINT>
10316853 100 18335987549331185955
108634 29 18340780286072663710
12596602 18 17203610376528949081
13402501 40 18408327691749836923
13533116 47 18130790079311484377
13836976 161 18333735736421595828
14178342 30 18052812543097798144
14251717 144 18411140203696570348
15110567 62 18337393747303736859
17492 54 18115890558635615910
20028762 73 18200311005076235254
20645477 70 18335138699999494725
21197605 99 18198063784193273623
21304304 249 18336539427101459418
23558518 356 17756704500406641035
23596394 208 18187918422984072845
33824 294 18410855443296712068
338550 245 18190465046543270271
3680242 22 18335417933182333203
42630746 31 18413106160704740277
484989 97 18335998552631541179
59755656 215 18187922855691047933
8199 65 18337958870594902012

> <PUBCHEM_SHAPE_MULTIPOLES>
358.69
12.34
4.05
0.94
22.66
3.63
0.02
-2.47
-1.87
-2.09
0.75
-0.34
0.11
0.55

> <PUBCHEM_SHAPE_SELFOVERLAP>
653.77

> <PUBCHEM_SHAPE_VOLUME>
228.4

> <PUBCHEM_COORDINATE_TYPE>
2
5
10

$$$$
