53436632
  -OEChem-11232109073D

 28 29  0     1  0  0  0  0  0999 V2000
   -1.9161    0.5387    0.7896 O   0  0  0  0  0  0  0  0  0  0  0  0
   -0.6175    2.4064    0.4873 O   0  0  0  0  0  0  0  0  0  0  0  0
   -0.5782   -1.0172   -0.3349 C   0  0  1  0  0  0  0  0  0  0  0  0
   -0.2021    0.3812   -0.8101 C   0  0  2  0  0  0  0  0  0  0  0  0
    0.3583   -1.5559    0.7611 C   0  0  0  0  0  0  0  0  0  0  0  0
    1.2908    0.6433   -0.9755 C   0  0  0  0  0  0  0  0  0  0  0  0
    2.1500    0.0926    0.1673 C   0  0  1  0  0  0  0  0  0  0  0  0
   -1.9753   -0.7891    0.2343 C   0  0  2  0  0  0  0  0  0  0  0  0
    1.8287   -1.3841    0.4074 C   0  0  0  0  0  0  0  0  0  0  0  0
   -0.8891    1.2469    0.2185 C   0  0  0  0  0  0  0  0  0  0  0  0
    3.6356    0.2797   -0.1369 C   0  0  0  0  0  0  0  0  0  0  0  0
   -3.0851   -0.8426   -0.8081 C   0  0  0  0  0  0  0  0  0  0  0  0
   -0.5818   -1.7304   -1.1676 H   0  0  0  0  0  0  0  0  0  0  0  0
   -0.6977    0.5999   -1.7651 H   0  0  0  0  0  0  0  0  0  0  0  0
    0.1660   -1.0505    1.7168 H   0  0  0  0  0  0  0  0  0  0  0  0
    0.1431   -2.6182    0.9293 H   0  0  0  0  0  0  0  0  0  0  0  0
    1.6139    0.1782   -1.9166 H   0  0  0  0  0  0  0  0  0  0  0  0
    1.4734    1.7197   -1.0837 H   0  0  0  0  0  0  0  0  0  0  0  0
    1.9221    0.6562    1.0816 H   0  0  0  0  0  0  0  0  0  0  0  0
   -2.2062   -1.4931    1.0415 H   0  0  0  0  0  0  0  0  0  0  0  0
    2.4442   -1.7738    1.2270 H   0  0  0  0  0  0  0  0  0  0  0  0
    2.0676   -1.9782   -0.4835 H   0  0  0  0  0  0  0  0  0  0  0  0
    3.9306   -0.2671   -1.0390 H   0  0  0  0  0  0  0  0  0  0  0  0
    4.2502   -0.0823    0.6940 H   0  0  0  0  0  0  0  0  0  0  0  0
    3.8700    1.3383   -0.2904 H   0  0  0  0  0  0  0  0  0  0  0  0
   -3.1384   -1.8305   -1.2751 H   0  0  0  0  0  0  0  0  0  0  0  0
   -4.0510   -0.6270   -0.3383 H   0  0  0  0  0  0  0  0  0  0  0  0
   -2.9493   -0.0900   -1.5915 H   0  0  0  0  0  0  0  0  0  0  0  0
  1  8  1  0  0  0  0
  1 10  1  0  0  0  0
  2 10  2  0  0  0  0
  3  4  1  0  0  0  0
  3  5  1  0  0  0  0
  3  8  1  0  0  0  0
  3 13  1  0  0  0  0
  4  6  1  0  0  0  0
  4 10  1  0  0  0  0
  4 14  1  0  0  0  0
  5  9  1  0  0  0  0
  5 15  1  0  0  0  0
  5 16  1  0  0  0  0
  6  7  1  0  0  0  0
  6 17  1  0  0  0  0
  6 18  1  0  0  0  0
  7  9  1  0  0  0  0
  7 11  1  0  0  0  0
  7 19  1  0  0  0  0
  8 12  1  0  0  0  0
  8 20  1  0  0  0  0
  9 21  1  0  0  0  0
  9 22  1  0  0  0  0
 11 23  1  0  0  0  0
 11 24  1  0  0  0  0
 11 25  1  0  0  0  0
 12 26  1  0  0  0  0
 12 27  1  0  0  0  0
 12 28  1  0  0  0  0
M  END
> <PUBCHEM_COMPOUND_CID>
53436632

> <PUBCHEM_CONFORMER_RMSD>
0.4

> <PUBCHEM_CONFORMER_DIVERSEORDER>
1
21
27
5
22
11
3
20
2
10
25
4
28
16
24
19
26
17
18
9
15
14
8
12
13
7
6
23

> <PUBCHEM_MMFF94_PARTIAL_CHARGES>
5
1 -0.43
10 0.66
2 -0.57
4 0.06
8 0.28

> <PUBCHEM_EFFECTIVE_ROTOR_COUNT>
1.2

> <PUBCHEM_PHARMACOPHORE_FEATURES>
3
1 2 acceptor
5 1 3 4 8 10 rings
6 3 4 5 6 7 9 rings

> <PUBCHEM_HEAVY_ATOM_COUNT>
12

> <PUBCHEM_ATOM_DEF_STEREO_COUNT>
0

> <PUBCHEM_ATOM_UDEF_STEREO_COUNT>
4

> <PUBCHEM_BOND_DEF_STEREO_COUNT>
0

> <PUBCHEM_BOND_UDEF_STEREO_COUNT>
0

> <PUBCHEM_ISOTOPIC_ATOM_COUNT>
0

> <PUBCHEM_COMPONENT_COUNT>
1

> <PUBCHEM_CACTVS_TAUTO_COUNT>
2

> <PUBCHEM_CONFORMER_ID>
032F60D800000001

> <PUBCHEM_MMFF94_ENERGY>
17.2922

> <PUBCHEM_FEATURE_SELFOVERLAP>
15.408

> <PUBCHEM_SHAPE_FINGERPRINT>
108231 29 18193282011912127850
12423570 1 10786134864538354653
13024252 1 18113900472200470462
13839132 238 17842852031286387292
14993402 34 18129934689202920647
15076042 46 18196934366375223970
15557651 10 17060331899162862746
15775835 57 18270690765944434632
16945 1 18113343032653283614
18185500 45 18408605885181544807
21501502 16 18267305322698753438
23236772 104 18408043991758313130
23402539 116 18131342050974692678
23419403 2 16241162708113240275
23552423 10 18189335675770277538
241688 4 17825664452651713890
2748010 2 18117558418700742246
29004967 10 16877666759664741750
369184 2 18342737399183468866
5084963 1 18186800253701689190
528886 8 17313651750425009535
53655031 270 18408886217633553883
63268167 104 18113614573513128314

> <PUBCHEM_SHAPE_MULTIPOLES>
235.22
4.14
1.76
0.94
1.35
0.48
-0.08
-0.52
-0.48
-0.22
0.41
-0.16
0.04
-0.46

> <PUBCHEM_SHAPE_SELFOVERLAP>
485.873

> <PUBCHEM_SHAPE_VOLUME>
136.2

> <PUBCHEM_COORDINATE_TYPE>
2
5
10

$$$$
