53470669
  -OEChem-11232109173D

 33 34  0     1  0  0  0  0  0999 V2000
   -4.6782   -0.0792    0.2634 N   0  0  0  0  0  0  0  0  0  0  0  0
    2.6391    0.4463   -0.0906 C   0  0  0  0  0  0  0  0  0  0  0  0
    2.0513   -0.9251   -0.3228 C   0  0  1  0  0  0  0  0  0  0  0  0
    1.9057   -0.2499    1.0211 C   0  0  2  0  0  0  0  0  0  0  0  0
    0.8703   -1.0650   -1.2429 C   0  0  0  0  0  0  0  0  0  0  0  0
    0.5553    0.2219    1.4782 C   0  0  0  0  0  0  0  0  0  0  0  0
   -0.4811   -1.0308   -0.5091 C   0  0  2  0  0  0  0  0  0  0  0  0
    4.1249    0.5294    0.0243 C   0  0  0  0  0  0  0  0  0  0  0  0
    2.0382    1.6594   -0.7177 C   0  0  0  0  0  0  0  0  0  0  0  0
   -0.5309    0.1578    0.4305 C   0  0  0  0  0  0  0  0  0  0  0  0
   -0.7585   -2.3450    0.2287 C   0  0  0  0  0  0  0  0  0  0  0  0
   -1.4538    1.1241    0.3107 C   0  0  0  0  0  0  0  0  0  0  0  0
   -2.5468    1.1105   -0.7100 C   0  0  0  0  0  0  0  0  0  0  0  0
   -3.7355    0.4457   -0.1637 C   0  0  0  0  0  0  0  0  0  0  0  0
    2.7216   -1.7742   -0.3851 H   0  0  0  0  0  0  0  0  0  0  0  0
    2.4925   -0.6329    1.8487 H   0  0  0  0  0  0  0  0  0  0  0  0
    0.8938   -0.3066   -2.0338 H   0  0  0  0  0  0  0  0  0  0  0  0
    0.9617   -2.0215   -1.7745 H   0  0  0  0  0  0  0  0  0  0  0  0
    0.2443   -0.4152    2.3163 H   0  0  0  0  0  0  0  0  0  0  0  0
    0.6537    1.2351    1.8866 H   0  0  0  0  0  0  0  0  0  0  0  0
   -1.2438   -0.9840   -1.2895 H   0  0  0  0  0  0  0  0  0  0  0  0
    4.4179    1.4061    0.6120 H   0  0  0  0  0  0  0  0  0  0  0  0
    4.5845    0.6136   -0.9664 H   0  0  0  0  0  0  0  0  0  0  0  0
    4.5562   -0.3523    0.5119 H   0  0  0  0  0  0  0  0  0  0  0  0
    2.5738    1.9041   -1.6428 H   0  0  0  0  0  0  0  0  0  0  0  0
    2.1459    2.5185   -0.0454 H   0  0  0  0  0  0  0  0  0  0  0  0
    0.9871    1.5977   -0.9920 H   0  0  0  0  0  0  0  0  0  0  0  0
   -1.7296   -2.3098    0.7349 H   0  0  0  0  0  0  0  0  0  0  0  0
   -0.7827   -3.1834   -0.4762 H   0  0  0  0  0  0  0  0  0  0  0  0
    0.0047   -2.5699    0.9810 H   0  0  0  0  0  0  0  0  0  0  0  0
   -1.4361    1.9676    0.9973 H   0  0  0  0  0  0  0  0  0  0  0  0
   -2.7986    2.1540   -0.9391 H   0  0  0  0  0  0  0  0  0  0  0  0
   -2.2502    0.6854   -1.6717 H   0  0  0  0  0  0  0  0  0  0  0  0
  1 14  3  0  0  0  0
  2  3  1  0  0  0  0
  2  4  1  0  0  0  0
  2  8  1  0  0  0  0
  2  9  1  0  0  0  0
  3  4  1  0  0  0  0
  3  5  1  0  0  0  0
  3 15  1  0  0  0  0
  4  6  1  0  0  0  0
  4 16  1  0  0  0  0
  5  7  1  0  0  0  0
  5 17  1  0  0  0  0
  5 18  1  0  0  0  0
  6 10  1  0  0  0  0
  6 19  1  0  0  0  0
  6 20  1  0  0  0  0
  7 10  1  0  0  0  0
  7 11  1  0  0  0  0
  7 21  1  0  0  0  0
  8 22  1  0  0  0  0
  8 23  1  0  0  0  0
  8 24  1  0  0  0  0
  9 25  1  0  0  0  0
  9 26  1  0  0  0  0
  9 27  1  0  0  0  0
 10 12  2  0  0  0  0
 11 28  1  0  0  0  0
 11 29  1  0  0  0  0
 11 30  1  0  0  0  0
 12 13  1  0  0  0  0
 12 31  1  0  0  0  0
 13 14  1  0  0  0  0
 13 32  1  0  0  0  0
 13 33  1  0  0  0  0
M  END
> <PUBCHEM_COMPOUND_CID>
53470669

> <PUBCHEM_CONFORMER_RMSD>
0.6

> <PUBCHEM_CONFORMER_DIVERSEORDER>
1
17
2
23
18
21
3
16
15
20
6
13
12
22
4
19
14
7
5
9
8
11
24
10

> <PUBCHEM_MMFF94_PARTIAL_CHARGES>
16
1 -0.56
10 -0.28
12 -0.29
13 0.34
14 0.36
15 0.1
16 0.1
2 -0.19
3 -0.19
31 0.15
4 -0.19
5 0.09
6 0.23
7 0.14
8 0.09
9 0.09

> <PUBCHEM_EFFECTIVE_ROTOR_COUNT>
1.8

> <PUBCHEM_PHARMACOPHORE_FEATURES>
3
1 1 acceptor
3 2 8 9 hydrophobe
7 2 3 4 5 6 7 10 rings

> <PUBCHEM_HEAVY_ATOM_COUNT>
14

> <PUBCHEM_ATOM_DEF_STEREO_COUNT>
0

> <PUBCHEM_ATOM_UDEF_STEREO_COUNT>
3

> <PUBCHEM_BOND_DEF_STEREO_COUNT>
1

> <PUBCHEM_BOND_UDEF_STEREO_COUNT>
0

> <PUBCHEM_ISOTOPIC_ATOM_COUNT>
0

> <PUBCHEM_COMPONENT_COUNT>
1

> <PUBCHEM_CACTVS_TAUTO_COUNT>
1

> <PUBCHEM_CONFORMER_ID>
032FE5CD00000001

> <PUBCHEM_MMFF94_ENERGY>
32.852

> <PUBCHEM_FEATURE_SELFOVERLAP>
15.223

> <PUBCHEM_SHAPE_FINGERPRINT>
10922049 32 18408042896531343274
11031198 65 17704073984104394319
12138202 97 18413106186242643526
12423570 1 12821648668198308682
12932764 1 16558171723449343641
13380535 76 18342459244390895798
13538477 17 18187916335044397898
13581323 91 18113896056884471350
13922767 16 12324244962226526903
14115302 16 18131637819829274460
14943859 89 18335135410428390992
14993402 34 18335420162111889548
15375462 6 17968373446912433071
15775835 57 17822009800328288652
15848700 24 8070025528534343963
16945 1 17561076973858469866
18186145 218 18269562641397422373
20645477 70 17915452793090661039
21524375 3 18411981360267132566
23235685 24 18272081691082157892
23402539 116 18412252935133404973
23402655 69 17703506597935286465
23559900 14 17561078151507742608
25 1 17989203724543913331
265663 24 17821443547534330928
2748010 2 17557975423339368512
3286 77 16298655114752438808
4047638 21 18342739632872625960
5084963 1 18200591371945179360
528886 8 18411976975321846568
5337951 7 17346308319337545042
57812782 119 17458346316820231805
58051976 378 18411697677898842981
6333272 397 18335141994544625367
69090 78 18334293188521082619
81228 2 17836901753619622875

> <PUBCHEM_SHAPE_MULTIPOLES>
283.13
6.22
1.67
1.09
3.98
0.61
0.12
-1.91
-0.18
0.07
-0.24
-0.27
0.02
0.06

> <PUBCHEM_SHAPE_SELFOVERLAP>
579.311

> <PUBCHEM_SHAPE_VOLUME>
162.3

> <PUBCHEM_COORDINATE_TYPE>
2
5
10

$$$$
