534931
  -OEChem-11232109113D

 42 44  0     1  0  0  0  0  0999 V2000
   -0.3783   -0.9102    1.7576 O   0  0  0  0  0  0  0  0  0  0  0  0
    0.4012    0.5581   -0.0509 C   0  0  2  0  0  0  0  0  0  0  0  0
   -0.4448   -0.7206    0.3430 C   0  0  2  0  0  0  0  0  0  0  0  0
   -1.9135   -0.3332   -0.1226 C   0  0  0  0  0  0  0  0  0  0  0  0
   -1.6670    1.0511   -0.8107 C   0  0  2  0  0  0  0  0  0  0  0  0
   -0.2544    0.9077   -1.4021 C   0  0  0  0  0  0  0  0  0  0  0  0
    1.9543    0.3597   -0.0488 C   0  0  0  0  0  0  0  0  0  0  0  0
   -0.0658    1.7770    0.8124 C   0  0  0  0  0  0  0  0  0  0  0  0
   -1.4205    2.1621    0.2148 C   0  0  0  0  0  0  0  0  0  0  0  0
    0.1018   -2.0122   -0.3032 C   0  0  0  0  0  0  0  0  0  0  0  0
    2.3462   -0.9927   -0.6927 C   0  0  0  0  0  0  0  0  0  0  0  0
    1.6007   -2.1811   -0.1001 C   0  0  0  0  0  0  0  0  0  0  0  0
   -2.5367   -1.2832   -1.1713 C   0  0  0  0  0  0  0  0  0  0  0  0
   -2.9271   -0.2574    1.0369 C   0  0  0  0  0  0  0  0  0  0  0  0
    2.6777    1.4671   -0.8521 C   0  0  0  0  0  0  0  0  0  0  0  0
    2.5262    0.4078    1.3897 C   0  0  0  0  0  0  0  0  0  0  0  0
   -2.4324    1.3229   -1.5429 H   0  0  0  0  0  0  0  0  0  0  0  0
   -0.1693    0.1242   -2.1593 H   0  0  0  0  0  0  0  0  0  0  0  0
    0.1023    1.8491   -1.8349 H   0  0  0  0  0  0  0  0  0  0  0  0
    0.6111    2.6328    0.7202 H   0  0  0  0  0  0  0  0  0  0  0  0
   -0.1586    1.5602    1.8800 H   0  0  0  0  0  0  0  0  0  0  0  0
   -2.2047    2.2685    0.9676 H   0  0  0  0  0  0  0  0  0  0  0  0
   -1.3378    3.1312   -0.2934 H   0  0  0  0  0  0  0  0  0  0  0  0
   -0.0796   -2.0362   -1.3818 H   0  0  0  0  0  0  0  0  0  0  0  0
   -0.4035   -2.8836    0.1314 H   0  0  0  0  0  0  0  0  0  0  0  0
    3.4252   -1.1632   -0.5845 H   0  0  0  0  0  0  0  0  0  0  0  0
    2.1517   -0.9588   -1.7730 H   0  0  0  0  0  0  0  0  0  0  0  0
    1.8363   -2.3153    0.9602 H   0  0  0  0  0  0  0  0  0  0  0  0
    1.9289   -3.0973   -0.6055 H   0  0  0  0  0  0  0  0  0  0  0  0
   -2.6211   -2.3040   -0.7831 H   0  0  0  0  0  0  0  0  0  0  0  0
   -3.5484   -0.9530   -1.4375 H   0  0  0  0  0  0  0  0  0  0  0  0
   -1.9701   -1.3152   -2.1065 H   0  0  0  0  0  0  0  0  0  0  0  0
   -3.1488   -1.2599    1.4214 H   0  0  0  0  0  0  0  0  0  0  0  0
   -2.5637    0.3313    1.8843 H   0  0  0  0  0  0  0  0  0  0  0  0
   -3.8712    0.1887    0.7043 H   0  0  0  0  0  0  0  0  0  0  0  0
    2.3851    1.4592   -1.9073 H   0  0  0  0  0  0  0  0  0  0  0  0
    2.4730    2.4646   -0.4520 H   0  0  0  0  0  0  0  0  0  0  0  0
    3.7650    1.3257   -0.8250 H   0  0  0  0  0  0  0  0  0  0  0  0
    2.2277   -0.4355    2.0136 H   0  0  0  0  0  0  0  0  0  0  0  0
    3.6231    0.3737    1.3603 H   0  0  0  0  0  0  0  0  0  0  0  0
    2.2639    1.3333    1.9111 H   0  0  0  0  0  0  0  0  0  0  0  0
    0.3339   -0.3886    2.1473 H   0  0  0  0  0  0  0  0  0  0  0  0
  1  3  1  0  0  0  0
  1 42  1  0  0  0  0
  2  3  1  0  0  0  0
  2  6  1  0  0  0  0
  2  7  1  0  0  0  0
  2  8  1  0  0  0  0
  3  4  1  0  0  0  0
  3 10  1  0  0  0  0
  4  5  1  0  0  0  0
  4 13  1  0  0  0  0
  4 14  1  0  0  0  0
  5  6  1  0  0  0  0
  5  9  1  0  0  0  0
  5 17  1  0  0  0  0
  6 18  1  0  0  0  0
  6 19  1  0  0  0  0
  7 11  1  0  0  0  0
  7 15  1  0  0  0  0
  7 16  1  0  0  0  0
  8  9  1  0  0  0  0
  8 20  1  0  0  0  0
  8 21  1  0  0  0  0
  9 22  1  0  0  0  0
  9 23  1  0  0  0  0
 10 12  1  0  0  0  0
 10 24  1  0  0  0  0
 10 25  1  0  0  0  0
 11 12  1  0  0  0  0
 11 26  1  0  0  0  0
 11 27  1  0  0  0  0
 12 28  1  0  0  0  0
 12 29  1  0  0  0  0
 13 30  1  0  0  0  0
 13 31  1  0  0  0  0
 13 32  1  0  0  0  0
 14 33  1  0  0  0  0
 14 34  1  0  0  0  0
 14 35  1  0  0  0  0
 15 36  1  0  0  0  0
 15 37  1  0  0  0  0
 15 38  1  0  0  0  0
 16 39  1  0  0  0  0
 16 40  1  0  0  0  0
 16 41  1  0  0  0  0
M  END
> <PUBCHEM_COMPOUND_CID>
534931

> <PUBCHEM_CONFORMER_RMSD>
0.6

> <PUBCHEM_CONFORMER_DIVERSEORDER>
2
4
1
3
5

> <PUBCHEM_MMFF94_PARTIAL_CHARGES>
3
1 -0.68
3 0.28
42 0.4

> <PUBCHEM_EFFECTIVE_ROTOR_COUNT>
1.6

> <PUBCHEM_PHARMACOPHORE_FEATURES>
6
1 1 acceptor
1 1 donor
3 4 13 14 hydrophobe
3 7 15 16 hydrophobe
6 2 3 7 10 11 12 rings
7 2 3 4 5 6 8 9 rings

> <PUBCHEM_HEAVY_ATOM_COUNT>
16

> <PUBCHEM_ATOM_DEF_STEREO_COUNT>
0

> <PUBCHEM_ATOM_UDEF_STEREO_COUNT>
3

> <PUBCHEM_BOND_DEF_STEREO_COUNT>
0

> <PUBCHEM_BOND_UDEF_STEREO_COUNT>
0

> <PUBCHEM_ISOTOPIC_ATOM_COUNT>
0

> <PUBCHEM_COMPONENT_COUNT>
1

> <PUBCHEM_CACTVS_TAUTO_COUNT>
1

> <PUBCHEM_CONFORMER_ID>
0008299300000002

> <PUBCHEM_MMFF94_ENERGY>
87.8348

> <PUBCHEM_FEATURE_SELFOVERLAP>
30.481

> <PUBCHEM_SHAPE_FINGERPRINT>
10863032 1 17561370603386964663
12423570 1 16771807004124109204
12491281 212 18129959917766749833
12524768 44 18188214324238705964
13024252 1 11891326586363068740
13140716 1 17979070814381983634
13172582 1 18265892634491989451
13299463 15 18189906318104799046
144361 1 18117002087122988854
14817 1 15217296406623322008
15001771 113 18195529186045872668
15775835 57 18131361820635062382
15881359 60 18261099816125235471
16945 1 18409445929234355565
17844478 74 18187944853911807019
20511035 2 17982443802481261052
20525323 117 18411127030963106929
21501502 16 18265339412787173542
22344851 341 18116987780618626795
2334 1 18411136900824320396
23419403 2 15011385401118000907
23493267 7 17603872234096221728
23552423 10 18336828585035872414
23559900 14 17697033644714462038
241688 4 17901106317662633704
2748010 2 18266456516495453612
369184 2 17917987256901357452
5084963 1 18041562412613961734
528886 8 18340772653488055779

> <PUBCHEM_SHAPE_MULTIPOLES>
323.4
3.76
2.22
1.33
0.19
0.17
-0.19
0.12
0.05
0.17
0.15
-0.07
-0.06
-0.1

> <PUBCHEM_SHAPE_SELFOVERLAP>
691.659

> <PUBCHEM_SHAPE_VOLUME>
185.3

> <PUBCHEM_COORDINATE_TYPE>
2
5
10

$$$$
