5352461
  -OEChem-11232108473D

 30 29  0     0  0  0  0  0  0999 V2000
   -0.8174   -0.2203    0.3153 O   0  0  0  0  0  0  0  0  0  0  0  0
   -2.4956   -1.5396   -0.5599 O   0  0  0  0  0  0  0  0  0  0  0  0
    3.8933   -0.2710    0.2571 C   0  0  0  0  0  0  0  0  0  0  0  0
    4.3500    0.9814   -0.4914 C   0  0  0  0  0  0  0  0  0  0  0  0
   -2.9726    0.7159    0.2150 C   0  0  0  0  0  0  0  0  0  0  0  0
   -4.4210    0.4915   -0.2129 C   0  0  0  0  0  0  0  0  0  0  0  0
    2.5421   -0.7243   -0.2142 C   0  0  0  0  0  0  0  0  0  0  0  0
    0.1224   -1.2659    0.1102 C   0  0  0  0  0  0  0  0  0  0  0  0
    5.7305    1.4286   -0.0360 C   0  0  0  0  0  0  0  0  0  0  0  0
    1.4635   -0.8043    0.5787 C   0  0  0  0  0  0  0  0  0  0  0  0
   -2.1058   -0.4899   -0.0671 C   0  0  0  0  0  0  0  0  0  0  0  0
   -5.2894    1.6978    0.1051 C   0  0  0  0  0  0  0  0  0  0  0  0
    4.6089   -1.0850    0.0897 H   0  0  0  0  0  0  0  0  0  0  0  0
    3.8840   -0.0731    1.3359 H   0  0  0  0  0  0  0  0  0  0  0  0
    3.6362    1.7979   -0.3276 H   0  0  0  0  0  0  0  0  0  0  0  0
    4.3753    0.7880   -1.5708 H   0  0  0  0  0  0  0  0  0  0  0  0
   -2.9310    0.9197    1.2908 H   0  0  0  0  0  0  0  0  0  0  0  0
   -2.5558    1.5720   -0.3273 H   0  0  0  0  0  0  0  0  0  0  0  0
   -4.4651    0.2855   -1.2891 H   0  0  0  0  0  0  0  0  0  0  0  0
   -4.8294   -0.3905    0.2950 H   0  0  0  0  0  0  0  0  0  0  0  0
    2.4591   -1.0101   -1.2599 H   0  0  0  0  0  0  0  0  0  0  0  0
    0.1430   -1.5375   -0.9519 H   0  0  0  0  0  0  0  0  0  0  0  0
   -0.1743   -2.1448    0.6942 H   0  0  0  0  0  0  0  0  0  0  0  0
    6.0381    2.3251   -0.5833 H   0  0  0  0  0  0  0  0  0  0  0  0
    5.7334    1.6654    1.0328 H   0  0  0  0  0  0  0  0  0  0  0  0
    6.4755    0.6473   -0.2174 H   0  0  0  0  0  0  0  0  0  0  0  0
    1.5477   -0.5261    1.6263 H   0  0  0  0  0  0  0  0  0  0  0  0
   -6.3215    1.5157   -0.2105 H   0  0  0  0  0  0  0  0  0  0  0  0
   -5.2945    1.9052    1.1800 H   0  0  0  0  0  0  0  0  0  0  0  0
   -4.9272    2.5900   -0.4157 H   0  0  0  0  0  0  0  0  0  0  0  0
  1  8  1  0  0  0  0
  1 11  1  0  0  0  0
  2 11  2  0  0  0  0
  3  4  1  0  0  0  0
  3  7  1  0  0  0  0
  3 13  1  0  0  0  0
  3 14  1  0  0  0  0
  4  9  1  0  0  0  0
  4 15  1  0  0  0  0
  4 16  1  0  0  0  0
  5  6  1  0  0  0  0
  5 11  1  0  0  0  0
  5 17  1  0  0  0  0
  5 18  1  0  0  0  0
  6 12  1  0  0  0  0
  6 19  1  0  0  0  0
  6 20  1  0  0  0  0
  7 10  2  0  0  0  0
  7 21  1  0  0  0  0
  8 10  1  0  0  0  0
  8 22  1  0  0  0  0
  8 23  1  0  0  0  0
  9 24  1  0  0  0  0
  9 25  1  0  0  0  0
  9 26  1  0  0  0  0
 10 27  1  0  0  0  0
 12 28  1  0  0  0  0
 12 29  1  0  0  0  0
 12 30  1  0  0  0  0
M  END
> <PUBCHEM_COMPOUND_CID>
5352461

> <PUBCHEM_CONFORMER_RMSD>
0.8

> <PUBCHEM_CONFORMER_DIVERSEORDER>
1
88
17
31
10
89
5
97
110
9
102
90
30
54
104
48
65
44
98
100
40
16
105
34
33
93
15
53
109
56
92
57
32
76
4
107
108
3
21
20
84
25
96
94
80
8
36
50
2
83
51
68
85
37
81
99
41
47
52
7
27
79
43
18
87
66
78
38
6
77
103
45
63
75
11
91
13
28
101
19
59
35
73
111
26
23
61
106
58
95
67
12
22
70
60
49
62
69
72
14
46
42
64
24
86
55
39
82
29
74
71

> <PUBCHEM_MMFF94_PARTIAL_CHARGES>
10
1 -0.43
10 -0.29
11 0.66
2 -0.57
21 0.15
27 0.15
3 0.14
5 0.06
7 -0.29
8 0.42

> <PUBCHEM_EFFECTIVE_ROTOR_COUNT>
7

> <PUBCHEM_PHARMACOPHORE_FEATURES>
3
1 12 hydrophobe
1 2 acceptor
1 9 hydrophobe

> <PUBCHEM_HEAVY_ATOM_COUNT>
12

> <PUBCHEM_ATOM_DEF_STEREO_COUNT>
0

> <PUBCHEM_ATOM_UDEF_STEREO_COUNT>
0

> <PUBCHEM_BOND_DEF_STEREO_COUNT>
1

> <PUBCHEM_BOND_UDEF_STEREO_COUNT>
0

> <PUBCHEM_ISOTOPIC_ATOM_COUNT>
0

> <PUBCHEM_COMPONENT_COUNT>
1

> <PUBCHEM_CACTVS_TAUTO_COUNT>
1

> <PUBCHEM_CONFORMER_ID>
0051AC0D00000001

> <PUBCHEM_MMFF94_ENERGY>
0.5212

> <PUBCHEM_FEATURE_SELFOVERLAP>
15.223

> <PUBCHEM_SHAPE_FINGERPRINT>
10014705 185 18410009936060922479
100836 57 18334581247946564524
10354089 29 17530969085826173420
12555020 224 10591749958171654081
12714333 28 17846497041460909104
13897977 58 18410575085127452005
1420 369 9223230749779716984
14252887 29 13334724718686723664
14455015 7 11455884789123483421
15048467 5 18410573976583011825
15501527 16 18411704304595563233
177051 138 9511461121826222562
17834072 32 18412266155153472652
17834072 33 18130782386834529557
193927 3 9799410074372182132
20526848 3 18409454669472379397
20605781 2 18410575093538038528
20621476 21 13685720806056916245
20645477 56 18412263939103237719
20645477 70 17346044359591441558
20767249 142 10159700192267093892
20767249 213 18335138683372876893
20871999 31 17917701457172440951
212847 35 18411976949784158272
21652331 79 18260265222328128716
23272321 79 18335704957641476369
23402539 116 18342452677775939638
23402655 69 18272087206131252950
23403322 49 10231756682318760285
23500284 214 17894916256266577914
23557571 272 18130794519811406574
270888 7 18408603647440708868
351380 3 9871751282491719044
42 15 7997971284159339658
449060 50 18261112933345786527
49783359 22 11025798703968733745

> <PUBCHEM_SHAPE_MULTIPOLES>
235.22
12.95
1.6
0.7
2.69
0.22
0
9.1
-0.61
-0.21
-0.07
0.07
-0.03
-0.47

> <PUBCHEM_SHAPE_SELFOVERLAP>
431.103

> <PUBCHEM_SHAPE_VOLUME>
149.3

> <PUBCHEM_COORDINATE_TYPE>
2
5
10

$$$$
