5352539
  -OEChem-11232109473D

 30 29  0     0  0  0  0  0  0999 V2000
    0.7347   -1.1184   -0.6043 O   0  0  0  0  0  0  0  0  0  0  0  0
    1.6264   -0.6032    1.4595 O   0  0  0  0  0  0  0  0  0  0  0  0
    2.3742    0.5846   -0.5299 C   0  0  0  0  0  0  0  0  0  0  0  0
   -1.4232   -1.4687    0.4066 C   0  0  0  0  0  0  0  0  0  0  0  0
   -0.0993   -2.1017   -0.0050 C   0  0  0  0  0  0  0  0  0  0  0  0
    1.5592   -0.4328    0.2492 C   0  0  0  0  0  0  0  0  0  0  0  0
    1.6128    1.9026   -0.6079 C   0  0  0  0  0  0  0  0  0  0  0  0
    3.7462    0.7829    0.1092 C   0  0  0  0  0  0  0  0  0  0  0  0
   -2.1693   -0.9210   -0.7774 C   0  0  0  0  0  0  0  0  0  0  0  0
   -2.5039    0.3704   -0.9168 C   0  0  0  0  0  0  0  0  0  0  0  0
   -2.1752    1.4305    0.0922 C   0  0  0  0  0  0  0  0  0  0  0  0
   -3.2825    1.5749    1.1247 C   0  0  0  0  0  0  0  0  0  0  0  0
    2.5354    0.1933   -1.5421 H   0  0  0  0  0  0  0  0  0  0  0  0
   -2.0509   -2.2416    0.8669 H   0  0  0  0  0  0  0  0  0  0  0  0
   -1.2442   -0.7245    1.1857 H   0  0  0  0  0  0  0  0  0  0  0  0
    0.3889   -2.5838    0.8504 H   0  0  0  0  0  0  0  0  0  0  0  0
   -0.2654   -2.8874   -0.7512 H   0  0  0  0  0  0  0  0  0  0  0  0
    2.1896    2.6570   -1.1527 H   0  0  0  0  0  0  0  0  0  0  0  0
    1.3904    2.2949    0.3906 H   0  0  0  0  0  0  0  0  0  0  0  0
    0.6595    1.7681   -1.1295 H   0  0  0  0  0  0  0  0  0  0  0  0
    4.3594    1.4649   -0.4889 H   0  0  0  0  0  0  0  0  0  0  0  0
    4.2785   -0.1712    0.1893 H   0  0  0  0  0  0  0  0  0  0  0  0
    3.6617    1.1994    1.1191 H   0  0  0  0  0  0  0  0  0  0  0  0
   -2.4619   -1.6230   -1.5540 H   0  0  0  0  0  0  0  0  0  0  0  0
   -1.2135    1.2612    0.5847 H   0  0  0  0  0  0  0  0  0  0  0  0
   -2.0603    2.3815   -0.4426 H   0  0  0  0  0  0  0  0  0  0  0  0
   -3.0616    0.6747   -1.7984 H   0  0  0  0  0  0  0  0  0  0  0  0
   -3.0451    2.3866    1.8200 H   0  0  0  0  0  0  0  0  0  0  0  0
   -3.4073    0.6573    1.7090 H   0  0  0  0  0  0  0  0  0  0  0  0
   -4.2408    1.8093    0.6489 H   0  0  0  0  0  0  0  0  0  0  0  0
  1  5  1  0  0  0  0
  1  6  1  0  0  0  0
  2  6  2  0  0  0  0
  3  6  1  0  0  0  0
  3  7  1  0  0  0  0
  3  8  1  0  0  0  0
  3 13  1  0  0  0  0
  4  5  1  0  0  0  0
  4  9  1  0  0  0  0
  4 14  1  0  0  0  0
  4 15  1  0  0  0  0
  5 16  1  0  0  0  0
  5 17  1  0  0  0  0
  7 18  1  0  0  0  0
  7 19  1  0  0  0  0
  7 20  1  0  0  0  0
  8 21  1  0  0  0  0
  8 22  1  0  0  0  0
  8 23  1  0  0  0  0
  9 10  2  0  0  0  0
  9 24  1  0  0  0  0
 10 11  1  0  0  0  0
 10 27  1  0  0  0  0
 11 12  1  0  0  0  0
 11 25  1  0  0  0  0
 11 26  1  0  0  0  0
 12 28  1  0  0  0  0
 12 29  1  0  0  0  0
 12 30  1  0  0  0  0
M  END
> <PUBCHEM_COMPOUND_CID>
5352539

> <PUBCHEM_CONFORMER_RMSD>
0.8

> <PUBCHEM_CONFORMER_DIVERSEORDER>
3
77
582
422
243
518
479
564
13
161
200
573
383
352
248
236
50
524
496
566
89
342
189
49
123
154
350
12
74
168
5
170
475
575
67
313
309
11
534
143
15
73
84
398
276
7
523
116
68
464
429
338
6
31
59
423
166
567
246
57
2
336
66
46
280
80
442
51
316
365
24
209
317
254
177
401
36
69
311
4
115
272
148
263
530
194
1
404
103

> <PUBCHEM_MMFF94_PARTIAL_CHARGES>
11
1 -0.43
10 -0.29
11 0.14
2 -0.57
24 0.15
27 0.15
3 0.06
4 0.14
5 0.28
6 0.66
9 -0.29

> <PUBCHEM_EFFECTIVE_ROTOR_COUNT>
6

> <PUBCHEM_PHARMACOPHORE_FEATURES>
3
1 12 hydrophobe
1 2 acceptor
3 3 7 8 hydrophobe

> <PUBCHEM_HEAVY_ATOM_COUNT>
12

> <PUBCHEM_ATOM_DEF_STEREO_COUNT>
0

> <PUBCHEM_ATOM_UDEF_STEREO_COUNT>
0

> <PUBCHEM_BOND_DEF_STEREO_COUNT>
1

> <PUBCHEM_BOND_UDEF_STEREO_COUNT>
0

> <PUBCHEM_ISOTOPIC_ATOM_COUNT>
0

> <PUBCHEM_COMPONENT_COUNT>
1

> <PUBCHEM_CACTVS_TAUTO_COUNT>
1

> <PUBCHEM_CONFORMER_ID>
0051AC5B00000003

> <PUBCHEM_MMFF94_ENERGY>
7.3416

> <PUBCHEM_FEATURE_SELFOVERLAP>
15.223

> <PUBCHEM_SHAPE_FINGERPRINT>
100427 49 16969984251441085367
10149128 111 18411984645906694365
12491281 212 18335426802468802648
13618510 140 18267023864764930861
13764800 53 18410866472872799459
13839132 238 18341900679345804935
14123255 52 18341054008369771201
15775835 57 18040991843272629885
17357990 137 18337667512344614082
19973954 147 18336830908592197486
20112054 60 18269551805189698584
20304884 271 18342179977011447017
20539926 19 18340216218942298989
20653085 51 18201166451113409775
20671657 1 18197786487865989175
20828058 19 7781502690895233721
21524375 3 18409445890669612983
22802520 49 18058471844860964830
230 275 18269547235318219331
23402539 116 18198332051776069855
23557571 272 17628332068457373219
305870 269 18334854974586144770
66348 1 18264766739043897797

> <PUBCHEM_SHAPE_MULTIPOLES>
235.22
5.45
2.17
1.07
1.16
0.13
-0.17
-2.89
-0.43
-0.72
-0.1
-0.3
-0.08
-0.76

> <PUBCHEM_SHAPE_SELFOVERLAP>
437.434

> <PUBCHEM_SHAPE_VOLUME>
148

> <PUBCHEM_COORDINATE_TYPE>
2
5
10

$$$$
