5352976
  -OEChem-11232108473D

 33 32  0     0  0  0  0  0  0999 V2000
    0.2236   -0.9194   -0.2742 O   0  0  0  0  0  0  0  0  0  0  0  0
   -1.5559   -1.9853    0.7357 O   0  0  0  0  0  0  0  0  0  0  0  0
   -3.3170    0.1143    0.0655 C   0  0  0  0  0  0  0  0  0  0  0  0
   -1.8409    0.1863   -0.3219 C   0  0  0  0  0  0  0  0  0  0  0  0
   -4.0646    1.3790   -0.3547 C   0  0  0  0  0  0  0  0  0  0  0  0
   -1.0783   -1.0413    0.1215 C   0  0  0  0  0  0  0  0  0  0  0  0
    2.4919   -1.7375   -0.4261 C   0  0  0  0  0  0  0  0  0  0  0  0
    1.0796   -2.0114    0.0770 C   0  0  0  0  0  0  0  0  0  0  0  0
   -5.5253    1.3274    0.0634 C   0  0  0  0  0  0  0  0  0  0  0  0
    3.0751   -0.5021    0.1999 C   0  0  0  0  0  0  0  0  0  0  0  0
    3.4698    0.5733   -0.4978 C   0  0  0  0  0  0  0  0  0  0  0  0
    4.0599    1.8025    0.1272 C   0  0  0  0  0  0  0  0  0  0  0  0
    2.9822    2.8142    0.4846 C   0  0  0  0  0  0  0  0  0  0  0  0
   -3.4066   -0.0228    1.1506 H   0  0  0  0  0  0  0  0  0  0  0  0
   -3.7801   -0.7638   -0.4018 H   0  0  0  0  0  0  0  0  0  0  0  0
   -1.7492    0.2729   -1.4103 H   0  0  0  0  0  0  0  0  0  0  0  0
   -1.3770    1.0615    0.1469 H   0  0  0  0  0  0  0  0  0  0  0  0
   -4.0043    1.5028   -1.4423 H   0  0  0  0  0  0  0  0  0  0  0  0
   -3.5934    2.2588    0.0988 H   0  0  0  0  0  0  0  0  0  0  0  0
    3.1369   -2.5914   -0.1909 H   0  0  0  0  0  0  0  0  0  0  0  0
    2.4710   -1.6326   -1.5177 H   0  0  0  0  0  0  0  0  0  0  0  0
    1.0801   -2.1385    1.1665 H   0  0  0  0  0  0  0  0  0  0  0  0
    0.7010   -2.9292   -0.3879 H   0  0  0  0  0  0  0  0  0  0  0  0
   -6.0352    0.4751   -0.3970 H   0  0  0  0  0  0  0  0  0  0  0  0
   -5.6196    1.2382    1.1504 H   0  0  0  0  0  0  0  0  0  0  0  0
   -6.0413    2.2408   -0.2484 H   0  0  0  0  0  0  0  0  0  0  0  0
    3.1915   -0.5075    1.2810 H   0  0  0  0  0  0  0  0  0  0  0  0
    3.3501    0.5852   -1.5782 H   0  0  0  0  0  0  0  0  0  0  0  0
    4.7778    2.2491   -0.5699 H   0  0  0  0  0  0  0  0  0  0  0  0
    4.6235    1.5380    1.0300 H   0  0  0  0  0  0  0  0  0  0  0  0
    3.4353    3.7091    0.9229 H   0  0  0  0  0  0  0  0  0  0  0  0
    2.2751    2.4028    1.2130 H   0  0  0  0  0  0  0  0  0  0  0  0
    2.4177    3.1212   -0.4025 H   0  0  0  0  0  0  0  0  0  0  0  0
  1  6  1  0  0  0  0
  1  8  1  0  0  0  0
  2  6  2  0  0  0  0
  3  4  1  0  0  0  0
  3  5  1  0  0  0  0
  3 14  1  0  0  0  0
  3 15  1  0  0  0  0
  4  6  1  0  0  0  0
  4 16  1  0  0  0  0
  4 17  1  0  0  0  0
  5  9  1  0  0  0  0
  5 18  1  0  0  0  0
  5 19  1  0  0  0  0
  7  8  1  0  0  0  0
  7 10  1  0  0  0  0
  7 20  1  0  0  0  0
  7 21  1  0  0  0  0
  8 22  1  0  0  0  0
  8 23  1  0  0  0  0
  9 24  1  0  0  0  0
  9 25  1  0  0  0  0
  9 26  1  0  0  0  0
 10 11  2  0  0  0  0
 10 27  1  0  0  0  0
 11 12  1  0  0  0  0
 11 28  1  0  0  0  0
 12 13  1  0  0  0  0
 12 29  1  0  0  0  0
 12 30  1  0  0  0  0
 13 31  1  0  0  0  0
 13 32  1  0  0  0  0
 13 33  1  0  0  0  0
M  END
> <PUBCHEM_COMPOUND_CID>
5352976

> <PUBCHEM_CONFORMER_RMSD>
0.8

> <PUBCHEM_CONFORMER_DIVERSEORDER>
1
226
110
192
100
157
53
27
5
151
23
2
142
91
21
232
69
24
239
58
19
109
256
39
210
209
225
54
134
8
147
40
248
17
125
47
213
124
44
11
218
237
138
234
150
191
136
26
187
154
143
115
49
67
6
254
149
200
29
238
164
135
224
141
34
15
60
89
231
255
207
190
212
9
55
176
130
215
171
165
144
104
83
168
158
68
133
177
33
258
221
163
185
43
180
63
167
246
198
120
220
211
13
152
101
98
20
233
102
214
153
128
241
249
85
146
137
175
145
48
156
243
4
247
52
208
236
206
245
162
84
3
194
170
223
242
183
202
127
106
57
45
80
182
95
62
99
82
139
50
113
96
203
61
88
70
35
160
74
108
244
32
97
25
107
193
205
174
148
94
240
169
118
111
132
260
261
87
73
66
112
41
196
90
117
217
93
77
259
204
78
72
230
257
253
18
252
75
195
119
140
129
7
12
219
227
81
250
178
114
37
131
59
228
188
159
76
28
56
229
121
42
16
235
30
179
126
173
92
65
216
10
38
105
251
181
172
201
103
51
71
184
123
86
116
189
14
155
161
79
222
22
46
64
186
199
31
166
197
122
36

> <PUBCHEM_MMFF94_PARTIAL_CHARGES>
11
1 -0.43
10 -0.29
11 -0.29
12 0.14
2 -0.57
27 0.15
28 0.15
4 0.06
6 0.66
7 0.14
8 0.28

> <PUBCHEM_EFFECTIVE_ROTOR_COUNT>
8

> <PUBCHEM_PHARMACOPHORE_FEATURES>
3
1 13 hydrophobe
1 2 acceptor
1 9 hydrophobe

> <PUBCHEM_HEAVY_ATOM_COUNT>
13

> <PUBCHEM_ATOM_DEF_STEREO_COUNT>
0

> <PUBCHEM_ATOM_UDEF_STEREO_COUNT>
0

> <PUBCHEM_BOND_DEF_STEREO_COUNT>
1

> <PUBCHEM_BOND_UDEF_STEREO_COUNT>
0

> <PUBCHEM_ISOTOPIC_ATOM_COUNT>
0

> <PUBCHEM_COMPONENT_COUNT>
1

> <PUBCHEM_CACTVS_TAUTO_COUNT>
1

> <PUBCHEM_CONFORMER_ID>
0051AE1000000001

> <PUBCHEM_MMFF94_ENERGY>
1.1062

> <PUBCHEM_FEATURE_SELFOVERLAP>
15.223

> <PUBCHEM_SHAPE_FINGERPRINT>
10608611 8 18409168826624178814
122479 349 18335702770928382611
12596602 18 14490486274001264429
14123255 52 18411698824317539660
1420 369 8646770006145407817
14251732 16 18410859880788953443
14251764 75 18268441311051966121
14252887 29 12685092553959980466
14774955 27 18408600383397225173
17834072 32 18411419548274446272
17834072 33 18272081691794126317
1798214 55 18340204206393499808
20449540 30 18129389356967905595
20621476 13 18271241750230538128
20621476 91 17096391552181768137
20645477 56 18261116257666330415
20871998 22 9583514317622726931
212847 35 18260833661724001300
22224240 67 11170783649356745062
22959321 54 18341334417956760904
22959321 60 18187372046961118139
23559900 14 18341331081052567002
43658 37 18271801362866977056
449060 62 18340769256084405191
474 4 18412543189181368177

> <PUBCHEM_SHAPE_MULTIPOLES>
255.8
10.15
2.77
0.72
9.23
0.72
0
7.65
0.25
-2.33
-0.38
-0.06
-0.01
0.64

> <PUBCHEM_SHAPE_SELFOVERLAP>
469.713

> <PUBCHEM_SHAPE_VOLUME>
162.1

> <PUBCHEM_COORDINATE_TYPE>
2
5
10

$$$$
