5352371
  -OEChem-11232109213D

 33 32  0     0  0  0  0  0  0999 V2000
   -3.8801    0.7512   -0.7201 O   0  0  0  0  0  0  0  0  0  0  0  0
   -2.5755    1.2409    1.1192 O   0  0  0  0  0  0  0  0  0  0  0  0
    2.5986   -0.6953    0.0228 C   0  0  0  0  0  0  0  0  0  0  0  0
    3.2976    0.5707   -0.4869 C   0  0  0  0  0  0  0  0  0  0  0  0
    1.4668   -1.2269   -0.8632 C   0  0  0  0  0  0  0  0  0  0  0  0
    4.3599    1.1071    0.4730 C   0  0  0  0  0  0  0  0  0  0  0  0
    0.7837   -2.4296   -0.2811 C   0  0  0  0  0  0  0  0  0  0  0  0
    4.9594    2.4098   -0.0344 C   0  0  0  0  0  0  0  0  0  0  0  0
   -1.0267   -1.0825    0.8119 C   0  0  0  0  0  0  0  0  0  0  0  0
   -0.3282   -2.3665    0.4660 C   0  0  0  0  0  0  0  0  0  0  0  0
   -2.1421   -0.7490   -0.1765 C   0  0  0  0  0  0  0  0  0  0  0  0
   -2.8747    0.5249    0.1722 C   0  0  0  0  0  0  0  0  0  0  0  0
   -4.6386    1.9451   -0.5030 C   0  0  0  0  0  0  0  0  0  0  0  0
    3.3516   -1.4837    0.1526 H   0  0  0  0  0  0  0  0  0  0  0  0
    2.1989   -0.4877    1.0242 H   0  0  0  0  0  0  0  0  0  0  0  0
    2.5398    1.3463   -0.6550 H   0  0  0  0  0  0  0  0  0  0  0  0
    3.7560    0.3601   -1.4609 H   0  0  0  0  0  0  0  0  0  0  0  0
    0.7556   -0.4220   -1.0778 H   0  0  0  0  0  0  0  0  0  0  0  0
    1.8794   -1.5116   -1.8394 H   0  0  0  0  0  0  0  0  0  0  0  0
    3.9162    1.2782    1.4606 H   0  0  0  0  0  0  0  0  0  0  0  0
    5.1552    0.3635    0.5985 H   0  0  0  0  0  0  0  0  0  0  0  0
    1.2306   -3.4009   -0.4753 H   0  0  0  0  0  0  0  0  0  0  0  0
    5.4349    2.2686   -1.0102 H   0  0  0  0  0  0  0  0  0  0  0  0
    5.7188    2.7746    0.6642 H   0  0  0  0  0  0  0  0  0  0  0  0
    4.1909    3.1831   -0.1347 H   0  0  0  0  0  0  0  0  0  0  0  0
   -1.4491   -1.1897    1.8196 H   0  0  0  0  0  0  0  0  0  0  0  0
   -0.3237   -0.2454    0.8907 H   0  0  0  0  0  0  0  0  0  0  0  0
   -0.7630   -3.2894    0.8401 H   0  0  0  0  0  0  0  0  0  0  0  0
   -2.8754   -1.5642   -0.1927 H   0  0  0  0  0  0  0  0  0  0  0  0
   -1.7290   -0.6311   -1.1849 H   0  0  0  0  0  0  0  0  0  0  0  0
   -5.1305    1.9091    0.4737 H   0  0  0  0  0  0  0  0  0  0  0  0
   -3.9914    2.8241   -0.5780 H   0  0  0  0  0  0  0  0  0  0  0  0
   -5.4054    2.0067   -1.2798 H   0  0  0  0  0  0  0  0  0  0  0  0
  1 12  1  0  0  0  0
  1 13  1  0  0  0  0
  2 12  2  0  0  0  0
  3  4  1  0  0  0  0
  3  5  1  0  0  0  0
  3 14  1  0  0  0  0
  3 15  1  0  0  0  0
  4  6  1  0  0  0  0
  4 16  1  0  0  0  0
  4 17  1  0  0  0  0
  5  7  1  0  0  0  0
  5 18  1  0  0  0  0
  5 19  1  0  0  0  0
  6  8  1  0  0  0  0
  6 20  1  0  0  0  0
  6 21  1  0  0  0  0
  7 10  2  0  0  0  0
  7 22  1  0  0  0  0
  8 23  1  0  0  0  0
  8 24  1  0  0  0  0
  8 25  1  0  0  0  0
  9 10  1  0  0  0  0
  9 11  1  0  0  0  0
  9 26  1  0  0  0  0
  9 27  1  0  0  0  0
 10 28  1  0  0  0  0
 11 12  1  0  0  0  0
 11 29  1  0  0  0  0
 11 30  1  0  0  0  0
 13 31  1  0  0  0  0
 13 32  1  0  0  0  0
 13 33  1  0  0  0  0
M  END
> <PUBCHEM_COMPOUND_CID>
5352371

> <PUBCHEM_CONFORMER_RMSD>
0.8

> <PUBCHEM_CONFORMER_DIVERSEORDER>
1
314
48
391
237
252
170
298
268
8
358
155
416
57
395
212
52
232
295
158
30
370
2
100
209
6
307
440
47
367
428
179
442
28
208
259
106
283
66
14
162
217
394
384
24
240
143
89
290
130
275
56
145
16
190
254
361
225
37
347
88
397
191
82
92
91
310
86
330
4
73
350
408
147
278
223
450
195
302
255
338
61
414
49
153
317
405
277
40
378
417
183
412
272
299
313
305
435
72
159
55
45
250
67
301
359
51
90
71
160
344
25
94
78
326
368
148
389
99
327
178
169
353
166
107
12
175
334
433
129
200
400
144
121
31
60
156
320
431
26
146
114
336
58
355
374
108
64
135
54
39
109
21
354
253
157
150
101
274
116
218
441
309
186
372
87
335
193
243
236
443
151
364
404
303
201
63
104
210
312
85
34
430
269
27
168
411
423
203
79
10
182
43
221
167
149
285
70
214
180
15
93
222
381
415
133
42
284
409
9
366
427
171
273
128
234
248
294
3
403
32
102
264
84
122
375
406
59
343
38
5
97
437
357
249
207
407
436
265
62
288
65
360
211
115
224
13
119
247
382
17
321
134
296
342
345
187
81
328
76
41
242
318
304
172
198
238
125
233
396
348
449
447
332
267
123
331
132
349
35
271
110
340
388
197
346
44
424
105
75
451
74
281
126
98
257
426
371
77
139
446
362
352
95
20
216
324
421
333
363
131
181
311
263
231
22
418
323
227
161
402
291
316
140
376
204
289
69
246
399
23
308
329
228
164
124
117
215
280
19
315
385
276
176
434
266
373
300
410
205
18
239
245
174
206
103
422
297
112
393
286
163
113
260
189
306
127
262
256
432
398
322
7
220
420
339
445
419
282
448
185
136
96
413
383
192
165
68
293
120
219
138
401
251
429
196
351
230
154
142
319
50
152
379
111
184
137
287
270
188
141
377
392
292
177
439
80
425
173
444
325
390
118
194
341
258
386
261
53
83
387
229
356
369
380
202
235
33
279
29
244
11
36
46
337
438
199
241
226
213
365

> <PUBCHEM_MMFF94_PARTIAL_CHARGES>
11
1 -0.43
10 -0.29
11 0.06
12 0.66
13 0.28
2 -0.57
22 0.15
28 0.15
5 0.14
7 -0.29
9 0.14

> <PUBCHEM_EFFECTIVE_ROTOR_COUNT>
8

> <PUBCHEM_PHARMACOPHORE_FEATURES>
3
1 2 acceptor
1 8 hydrophobe
5 3 4 5 6 7 hydrophobe

> <PUBCHEM_HEAVY_ATOM_COUNT>
13

> <PUBCHEM_ATOM_DEF_STEREO_COUNT>
0

> <PUBCHEM_ATOM_UDEF_STEREO_COUNT>
0

> <PUBCHEM_BOND_DEF_STEREO_COUNT>
1

> <PUBCHEM_BOND_UDEF_STEREO_COUNT>
0

> <PUBCHEM_ISOTOPIC_ATOM_COUNT>
0

> <PUBCHEM_COMPONENT_COUNT>
1

> <PUBCHEM_CACTVS_TAUTO_COUNT>
1

> <PUBCHEM_CONFORMER_ID>
0051ABB300000001

> <PUBCHEM_MMFF94_ENERGY>
6.3203

> <PUBCHEM_FEATURE_SELFOVERLAP>
15.223

> <PUBCHEM_SHAPE_FINGERPRINT>
12006461 19 9079107865043163703
122479 349 18336547213539459238
12633257 1 14707216512783854069
14123255 352 18409448115668342116
14123255 52 18409446990238970644
14250199 8 18055360136855114143
14251710 61 9655578513083053860
14251732 14 16916201370302693861
14251764 30 12679177288629295597
14957384 54 18262227941416150216
15061688 2 18409165515209726846
1741750 31 18339646741129068402
17834072 32 18410294756828193420
1798214 55 18409171008567779028
19782 4 18333729108906808085
20281475 54 9295291659664441646
20621476 13 18338234860587704508
20621476 91 17242481467362100689
20645477 56 18198356245674923018
20671657 1 18266464204672289654
20767249 462 18409732876289519124
20871998 22 9295279530529247606
21354914 76 9222933881661004709
21401589 2 18336272330973519353
21499 59 18413106147677563111
23403322 49 10015595994848803716
23590187 32 18410294752496036524
270888 7 18409727369983878732
27216 239 18189058762038058682
328317 168 18412821399961834845
43658 37 18411417280711081559
4416823 128 9367347033093189438
474 4 18410854326262070409
5365585 94 10447384162685177308
59345606 38 18410291432206631524
7062679 13 10015592696514828908
8199 26 18412547630383286952
94968 8 10879695585921575638

> <PUBCHEM_SHAPE_MULTIPOLES>
255.8
9.84
2.86
0.9
2.64
0.33
-0.05
-11.06
0.65
0.55
0.03
-0.22
0
0.6

> <PUBCHEM_SHAPE_SELFOVERLAP>
469.425

> <PUBCHEM_SHAPE_VOLUME>
162.4

> <PUBCHEM_COORDINATE_TYPE>
2
5
10

$$$$
