5352838
  -OEChem-11232109183D

 30 29  0     0  0  0  0  0  0999 V2000
   -2.8971   -0.2220   -0.4926 O   0  0  0  0  0  0  0  0  0  0  0  0
   -4.2151    0.2116    1.3546 O   0  0  0  0  0  0  0  0  0  0  0  0
    0.7318    0.7431    0.0130 C   0  0  0  0  0  0  0  0  0  0  0  0
   -0.5165    0.2047   -0.6965 C   0  0  0  0  0  0  0  0  0  0  0  0
    1.9967    0.6471   -0.8466 C   0  0  0  0  0  0  0  0  0  0  0  0
   -1.7568    0.2829    0.1877 C   0  0  0  0  0  0  0  0  0  0  0  0
    3.2034    1.2415   -0.1797 C   0  0  0  0  0  0  0  0  0  0  0  0
    4.0750    0.5327    0.5530 C   0  0  0  0  0  0  0  0  0  0  0  0
    3.9525   -0.9419    0.7973 C   0  0  0  0  0  0  0  0  0  0  0  0
    4.6756   -1.7423   -0.2744 C   0  0  0  0  0  0  0  0  0  0  0  0
   -4.0699   -0.1993    0.2112 C   0  0  0  0  0  0  0  0  0  0  0  0
   -5.1796   -0.7580   -0.6269 C   0  0  0  0  0  0  0  0  0  0  0  0
    0.8805    0.1891    0.9483 H   0  0  0  0  0  0  0  0  0  0  0  0
    0.5599    1.7905    0.2924 H   0  0  0  0  0  0  0  0  0  0  0  0
   -0.6950    0.7647   -1.6226 H   0  0  0  0  0  0  0  0  0  0  0  0
   -0.3563   -0.8367   -1.0017 H   0  0  0  0  0  0  0  0  0  0  0  0
    2.1652   -0.3944   -1.1404 H   0  0  0  0  0  0  0  0  0  0  0  0
    1.8362    1.1890   -1.7875 H   0  0  0  0  0  0  0  0  0  0  0  0
   -1.9397    1.3267    0.4701 H   0  0  0  0  0  0  0  0  0  0  0  0
   -1.5938   -0.3039    1.0999 H   0  0  0  0  0  0  0  0  0  0  0  0
    3.3635    2.3099   -0.2969 H   0  0  0  0  0  0  0  0  0  0  0  0
    4.9276    1.0436    0.9923 H   0  0  0  0  0  0  0  0  0  0  0  0
    2.9069   -1.2611    0.8601 H   0  0  0  0  0  0  0  0  0  0  0  0
    4.3905   -1.1673    1.7771 H   0  0  0  0  0  0  0  0  0  0  0  0
    5.7394   -1.4834   -0.3101 H   0  0  0  0  0  0  0  0  0  0  0  0
    4.2513   -1.5677   -1.2682 H   0  0  0  0  0  0  0  0  0  0  0  0
    4.5985   -2.8131   -0.0599 H   0  0  0  0  0  0  0  0  0  0  0  0
   -4.9574   -1.7945   -0.8925 H   0  0  0  0  0  0  0  0  0  0  0  0
   -5.3077   -0.1490   -1.5253 H   0  0  0  0  0  0  0  0  0  0  0  0
   -6.1120   -0.7368   -0.0555 H   0  0  0  0  0  0  0  0  0  0  0  0
  1  6  1  0  0  0  0
  1 11  1  0  0  0  0
  2 11  2  0  0  0  0
  3  4  1  0  0  0  0
  3  5  1  0  0  0  0
  3 13  1  0  0  0  0
  3 14  1  0  0  0  0
  4  6  1  0  0  0  0
  4 15  1  0  0  0  0
  4 16  1  0  0  0  0
  5  7  1  0  0  0  0
  5 17  1  0  0  0  0
  5 18  1  0  0  0  0
  6 19  1  0  0  0  0
  6 20  1  0  0  0  0
  7  8  2  0  0  0  0
  7 21  1  0  0  0  0
  8  9  1  0  0  0  0
  8 22  1  0  0  0  0
  9 10  1  0  0  0  0
  9 23  1  0  0  0  0
  9 24  1  0  0  0  0
 10 25  1  0  0  0  0
 10 26  1  0  0  0  0
 10 27  1  0  0  0  0
 11 12  1  0  0  0  0
 12 28  1  0  0  0  0
 12 29  1  0  0  0  0
 12 30  1  0  0  0  0
M  END
> <PUBCHEM_COMPOUND_CID>
5352838

> <PUBCHEM_CONFORMER_RMSD>
0.8

> <PUBCHEM_CONFORMER_DIVERSEORDER>
1
192
160
183
9
21
137
197
127
119
103
75
176
188
59
25
58
92
84
8
153
5
163
6
189
180
35
191
157
57
156
54
11
190
96
97
52
14
125
114
100
139
138
64
47
144
46
99
134
45
178
73
51
166
33
37
43
165
177
53
147
113
123
108
3
179
164
98
169
79
148
199
65
111
85
131
102
104
82
68
120
162
74
174
184
42
155
30
106
116
110
135
151
182
124
129
15
48
87
203
88
7
154
72
181
34
107
2
171
66
173
146
86
118
77
152
187
4
95
32
133
17
19
80
143
26
36
122
24
161
78
158
170
186
27
62
200
56
13
91
20
140
141
105
12
67
196
63
49
109
172
71
28
76
149
167
41
10
61
136
193
150
94
39
112
69
22
90
201
194
121
70
29
115
185
128
23
126
31
195
142
198
38
16
168
89
202
50
81
83
44
145
130
175
132
55
204
60
117
101
93
18
159
40

> <PUBCHEM_MMFF94_PARTIAL_CHARGES>
11
1 -0.43
11 0.66
12 0.06
2 -0.57
21 0.15
22 0.15
5 0.14
6 0.28
7 -0.29
8 -0.29
9 0.14

> <PUBCHEM_EFFECTIVE_ROTOR_COUNT>
7

> <PUBCHEM_PHARMACOPHORE_FEATURES>
3
1 10 hydrophobe
1 2 acceptor
4 3 4 5 7 hydrophobe

> <PUBCHEM_HEAVY_ATOM_COUNT>
12

> <PUBCHEM_ATOM_DEF_STEREO_COUNT>
0

> <PUBCHEM_ATOM_UDEF_STEREO_COUNT>
0

> <PUBCHEM_BOND_DEF_STEREO_COUNT>
1

> <PUBCHEM_BOND_UDEF_STEREO_COUNT>
0

> <PUBCHEM_ISOTOPIC_ATOM_COUNT>
0

> <PUBCHEM_COMPONENT_COUNT>
1

> <PUBCHEM_CACTVS_TAUTO_COUNT>
1

> <PUBCHEM_CONFORMER_ID>
0051AD8600000001

> <PUBCHEM_MMFF94_ENERGY>
5.3396

> <PUBCHEM_FEATURE_SELFOVERLAP>
15.223

> <PUBCHEM_SHAPE_FINGERPRINT>
10912923 1 17988648531607513753
11128504 68 11458427937779851098
11543360 7 11097859596404407852
11858739 19 18410568466392945175
11987891 38 18260830431460409563
12616999 72 14851604358843387008
13167823 11 18412541041713856215
13237642 15 14549019918256954871
13533116 47 18343581837114859306
14123238 8 17060339656069017021
14251718 22 14346087433547594526
14252887 29 18260543420988253232
14366163 111 11025798691215687958
14455015 7 17895200982227556994
15242439 84 16298380275769030805
177051 138 18408321064873651548
17834072 8 16950278507805817855
17834074 16 17531247274609584130
1986462 14 15647044958898710869
20432913 95 18334294270826435202
20645477 70 18259981578867355854
20871999 31 15936411087786237828
21354914 88 18334856104230764646
22485316 2 18335418014712501029
23402539 116 18130782370124399213
23402655 69 8214135266349312232
23590187 198 18342458136389534215
23590187 302 13190342370522771414
4047638 21 11239998966986642724
42 15 18343584023274012956
449060 62 11024106564574737378
4990 188 15864068775749686480
522135 26 18260267460622891580
5374978 207 16702303455649221816
573450 72 17917992772087654635
57483677 66 18408881875886159599
94968 8 17968095279725445074

> <PUBCHEM_SHAPE_MULTIPOLES>
235.22
12.32
1.26
0.97
6.92
0.33
0.11
4.39
1.15
-1.85
-0.1
0.3
0.01
-0.3

> <PUBCHEM_SHAPE_SELFOVERLAP>
431.106

> <PUBCHEM_SHAPE_VOLUME>
149

> <PUBCHEM_COORDINATE_TYPE>
2
5
10

$$$$
