5352463
  -OEChem-11232109463D

 27 26  0     0  0  0  0  0  0999 V2000
   -1.2977    0.0443    0.3315 O   0  0  0  0  0  0  0  0  0  0  0  0
   -3.0962   -1.0819   -0.5746 O   0  0  0  0  0  0  0  0  0  0  0  0
    3.3875   -0.4429    0.2345 C   0  0  0  0  0  0  0  0  0  0  0  0
    3.9555    0.7866   -0.4747 C   0  0  0  0  0  0  0  0  0  0  0  0
    1.9976   -0.7518   -0.2412 C   0  0  0  0  0  0  0  0  0  0  0  0
    5.3737    1.0875   -0.0154 C   0  0  0  0  0  0  0  0  0  0  0  0
    0.9200   -0.7584    0.5571 C   0  0  0  0  0  0  0  0  0  0  0  0
   -0.4606   -1.0766    0.0839 C   0  0  0  0  0  0  0  0  0  0  0  0
   -3.3566    1.1786    0.2813 C   0  0  0  0  0  0  0  0  0  0  0  0
   -2.6075   -0.0909   -0.0496 C   0  0  0  0  0  0  0  0  0  0  0  0
   -4.8159    1.1056   -0.1328 C   0  0  0  0  0  0  0  0  0  0  0  0
    4.0231   -1.3138    0.0340 H   0  0  0  0  0  0  0  0  0  0  0  0
    3.4018   -0.2823    1.3195 H   0  0  0  0  0  0  0  0  0  0  0  0
    3.3217    1.6598   -0.2778 H   0  0  0  0  0  0  0  0  0  0  0  0
    3.9576    0.6289   -1.5602 H   0  0  0  0  0  0  0  0  0  0  0  0
    1.8834   -0.9925   -1.2954 H   0  0  0  0  0  0  0  0  0  0  0  0
    5.7611    1.9698   -0.5345 H   0  0  0  0  0  0  0  0  0  0  0  0
    5.4037    1.2861    1.0607 H   0  0  0  0  0  0  0  0  0  0  0  0
    6.0419    0.2470   -0.2289 H   0  0  0  0  0  0  0  0  0  0  0  0
    1.0348   -0.5255    1.6128 H   0  0  0  0  0  0  0  0  0  0  0  0
   -0.4705   -1.3124   -0.9869 H   0  0  0  0  0  0  0  0  0  0  0  0
   -0.8352   -1.9437    0.6402 H   0  0  0  0  0  0  0  0  0  0  0  0
   -3.2934    1.3461    1.3615 H   0  0  0  0  0  0  0  0  0  0  0  0
   -2.8735    2.0116   -0.2402 H   0  0  0  0  0  0  0  0  0  0  0  0
   -5.3288    0.2836    0.3775 H   0  0  0  0  0  0  0  0  0  0  0  0
   -5.3304    2.0382    0.1179 H   0  0  0  0  0  0  0  0  0  0  0  0
   -4.9108    0.9411   -1.2114 H   0  0  0  0  0  0  0  0  0  0  0  0
  1  8  1  0  0  0  0
  1 10  1  0  0  0  0
  2 10  2  0  0  0  0
  3  4  1  0  0  0  0
  3  5  1  0  0  0  0
  3 12  1  0  0  0  0
  3 13  1  0  0  0  0
  4  6  1  0  0  0  0
  4 14  1  0  0  0  0
  4 15  1  0  0  0  0
  5  7  2  0  0  0  0
  5 16  1  0  0  0  0
  6 17  1  0  0  0  0
  6 18  1  0  0  0  0
  6 19  1  0  0  0  0
  7  8  1  0  0  0  0
  7 20  1  0  0  0  0
  8 21  1  0  0  0  0
  8 22  1  0  0  0  0
  9 10  1  0  0  0  0
  9 11  1  0  0  0  0
  9 23  1  0  0  0  0
  9 24  1  0  0  0  0
 11 25  1  0  0  0  0
 11 26  1  0  0  0  0
 11 27  1  0  0  0  0
M  END
> <PUBCHEM_COMPOUND_CID>
5352463

> <PUBCHEM_CONFORMER_RMSD>
0.6

> <PUBCHEM_CONFORMER_DIVERSEORDER>
1
269
30
94
250
257
162
263
122
154
82
260
93
290
287
232
211
35
192
277
170
51
145
128
218
131
262
230
201
286
2
161
171
284
246
75
196
92
195
244
95
189
56
285
293
160
157
83
123
158
294
4
159
255
26
11
156
110
259
121
237
55
163
3
134
132
275
50
153
5
168
152
213
79
130
107
129
133
70
111
202
101
31
113
265
247
137
231
253
197
264
191
54
175
271
34
251
68
276
116
208
193
10
124
91
288
219
135
273
37
167
17
32
282
291
268
239
210
90
258
225
9
49
289
57
102
209
169
198
97
81
25
254
53
280
119
229
214
80
106
150
200
183
87
281
272
228
241
144
15
60
52
256
221
184
36
238
252
125
45
226
185
149
217
46
7
245
283
76
266
63
100
176
173
103
108
33
105
188
117
118
243
174
139
165
44
166
146
127
224
6
205
172
72
29
182
136
187
22
164
274
140
240
236
248
190
204
65
295
88
216
234
39
43
194
186
270
212
267
179
64
99
23
227
8
222
27
28
148
233
207
177
84
242
24
292
58
261
59
278
120
41
249
13
69
109
78
18
20
14
138
199
96
42
38
112
89
115
62
126
180
147
203
67
73
21
16
48
114
235
104
142
71
98
215
19
178
206
86
181
279
151
143
77
85
141
223
61
66
220
47
155
12
74
40

> <PUBCHEM_MMFF94_PARTIAL_CHARGES>
10
1 -0.43
10 0.66
16 0.15
2 -0.57
20 0.15
3 0.14
5 -0.29
7 -0.29
8 0.42
9 0.06

> <PUBCHEM_EFFECTIVE_ROTOR_COUNT>
6

> <PUBCHEM_PHARMACOPHORE_FEATURES>
3
1 11 hydrophobe
1 2 acceptor
1 6 hydrophobe

> <PUBCHEM_HEAVY_ATOM_COUNT>
11

> <PUBCHEM_ATOM_DEF_STEREO_COUNT>
0

> <PUBCHEM_ATOM_UDEF_STEREO_COUNT>
0

> <PUBCHEM_BOND_DEF_STEREO_COUNT>
1

> <PUBCHEM_BOND_UDEF_STEREO_COUNT>
0

> <PUBCHEM_ISOTOPIC_ATOM_COUNT>
0

> <PUBCHEM_COMPONENT_COUNT>
1

> <PUBCHEM_CACTVS_TAUTO_COUNT>
1

> <PUBCHEM_CONFORMER_ID>
0051AC0F00000001

> <PUBCHEM_MMFF94_ENERGY>
0.7587

> <PUBCHEM_FEATURE_SELFOVERLAP>
15.223

> <PUBCHEM_SHAPE_FINGERPRINT>
10014705 185 18334572422015553253
100836 57 18260274057661126636
114248 4 16845289453688754224
122479 349 18187089498437781690
13690532 89 10375865277535433777
14123260 362 18272382952910060433
14252887 29 13190332449306651080
14455015 7 11527942383161495845
15477762 27 11455892464794335730
15501527 16 18411141359158752728
177051 138 9367343730400378426
20605781 2 18411700989044470808
20621476 21 14188995869803286581
20645477 56 18412827980094344787
20645477 70 17488751064581928982
20767249 142 10159699092718640308
20767249 213 18334575729198438805
20828058 44 10953451929872209462
20871999 31 17703217512234329879
21119208 17 16702302351768909900
212847 35 18411696561349842416
21652331 79 18260829267535179213
22485316 2 10159702378399932330
23402539 116 18343014510905930228
23402655 69 18130788949549864884
23500284 214 17967820456946051458
42 15 7925911486792554889
449060 50 18334861576351506527

> <PUBCHEM_SHAPE_MULTIPOLES>
214.64
11.17
1.34
0.7
3.29
0.12
0
6.09
-0.78
-0.16
-0.03
0.03
-0.02
-0.34

> <PUBCHEM_SHAPE_SELFOVERLAP>
393.161

> <PUBCHEM_SHAPE_VOLUME>
136.5

> <PUBCHEM_COORDINATE_TYPE>
2
5
10

$$$$
