5352807
  -OEChem-11232108583D

 28 27  0     0  0  0  0  0  0999 V2000
    1.8858   -2.0381    0.2413 O   0  0  0  0  0  0  0  0  0  0  0  0
   -1.6987    1.4909    0.1914 C   0  0  0  0  0  0  0  0  0  0  0  0
   -1.8769    0.0318   -0.2388 C   0  0  0  0  0  0  0  0  0  0  0  0
   -0.3541    2.0917   -0.2316 C   0  0  0  0  0  0  0  0  0  0  0  0
   -3.2221   -0.5231    0.2316 C   0  0  0  0  0  0  0  0  0  0  0  0
    0.8280    1.3763    0.3565 C   0  0  0  0  0  0  0  0  0  0  0  0
   -3.3886   -1.9839   -0.1564 C   0  0  0  0  0  0  0  0  0  0  0  0
    1.7959    0.8086   -0.3783 C   0  0  0  0  0  0  0  0  0  0  0  0
    2.9865    0.1033    0.2078 C   0  0  0  0  0  0  0  0  0  0  0  0
    3.0442   -1.3574   -0.2234 C   0  0  0  0  0  0  0  0  0  0  0  0
   -1.8000    1.5642    1.2819 H   0  0  0  0  0  0  0  0  0  0  0  0
   -2.5042    2.0975   -0.2405 H   0  0  0  0  0  0  0  0  0  0  0  0
   -1.8072   -0.0405   -1.3309 H   0  0  0  0  0  0  0  0  0  0  0  0
   -1.0740   -0.5868    0.1786 H   0  0  0  0  0  0  0  0  0  0  0  0
   -0.2954    2.1049   -1.3270 H   0  0  0  0  0  0  0  0  0  0  0  0
   -0.3179    3.1380    0.0951 H   0  0  0  0  0  0  0  0  0  0  0  0
   -4.0394    0.0622   -0.2054 H   0  0  0  0  0  0  0  0  0  0  0  0
   -3.3031   -0.4313    1.3210 H   0  0  0  0  0  0  0  0  0  0  0  0
    0.8865    1.3375    1.4414 H   0  0  0  0  0  0  0  0  0  0  0  0
   -4.3574   -2.3593    0.1876 H   0  0  0  0  0  0  0  0  0  0  0  0
   -3.3420   -2.1085   -1.2430 H   0  0  0  0  0  0  0  0  0  0  0  0
   -2.6053   -2.6016    0.2945 H   0  0  0  0  0  0  0  0  0  0  0  0
    1.7418    0.8576   -1.4631 H   0  0  0  0  0  0  0  0  0  0  0  0
    3.8971    0.6166   -0.1208 H   0  0  0  0  0  0  0  0  0  0  0  0
    2.9572    0.1585    1.3029 H   0  0  0  0  0  0  0  0  0  0  0  0
    3.9282   -1.8506    0.1928 H   0  0  0  0  0  0  0  0  0  0  0  0
    3.0820   -1.4509   -1.3136 H   0  0  0  0  0  0  0  0  0  0  0  0
    1.8716   -1.9652    1.2109 H   0  0  0  0  0  0  0  0  0  0  0  0
  1 10  1  0  0  0  0
  1 28  1  0  0  0  0
  2  3  1  0  0  0  0
  2  4  1  0  0  0  0
  2 11  1  0  0  0  0
  2 12  1  0  0  0  0
  3  5  1  0  0  0  0
  3 13  1  0  0  0  0
  3 14  1  0  0  0  0
  4  6  1  0  0  0  0
  4 15  1  0  0  0  0
  4 16  1  0  0  0  0
  5  7  1  0  0  0  0
  5 17  1  0  0  0  0
  5 18  1  0  0  0  0
  6  8  2  0  0  0  0
  6 19  1  0  0  0  0
  7 20  1  0  0  0  0
  7 21  1  0  0  0  0
  7 22  1  0  0  0  0
  8  9  1  0  0  0  0
  8 23  1  0  0  0  0
  9 10  1  0  0  0  0
  9 24  1  0  0  0  0
  9 25  1  0  0  0  0
 10 26  1  0  0  0  0
 10 27  1  0  0  0  0
M  END
> <PUBCHEM_COMPOUND_CID>
5352807

> <PUBCHEM_CONFORMER_RMSD>
0.6

> <PUBCHEM_CONFORMER_DIVERSEORDER>
1
108
201
68
4
216
59
74
189
22
12
42
226
7
145
217
121
158
35
225
78
88
61
227
17
223
3
18
50
196
40
204
87
56
143
9
64
222
77
206
175
38
120
15
91
209
30
184
37
29
199
92
34
102
219
192
81
27
167
205
2
218
73
41
23
200
84
47
221
169
202
60
136
191
10
213
171
128
33
63
89
45
159
107
210
25
215
103
203
132
100
85
194
137
124
19
176
207
165
58
185
197
162
187
79
173
129
188
119
52
214
149
76
220
11
8
32
131
31
147
195
177
16
57
44
110
208
157
49
95
101
36
21
112
69
168
148
46
140
135
71
75
182
211
160
115
142
67
139
134
154
122
123
153
116
127
172
13
193
113
62
181
83
104
48
24
155
164
51
151
90
80
212
141
114
163
186
118
166
183
26
54
170
156
72
111
106
130
109
125
39
65
82
96
174
190
55
70
28
43
133
99
150
144
20
152
146
224
5
66
126
180
105
94
6
14
138
179
98
117
178
198
86
97
93
53
161

> <PUBCHEM_MMFF94_PARTIAL_CHARGES>
9
1 -0.68
10 0.28
19 0.15
23 0.15
28 0.4
4 0.14
6 -0.29
8 -0.29
9 0.14

> <PUBCHEM_EFFECTIVE_ROTOR_COUNT>
6

> <PUBCHEM_PHARMACOPHORE_FEATURES>
4
1 1 acceptor
1 1 donor
1 7 hydrophobe
5 2 3 4 5 6 hydrophobe

> <PUBCHEM_HEAVY_ATOM_COUNT>
10

> <PUBCHEM_ATOM_DEF_STEREO_COUNT>
0

> <PUBCHEM_ATOM_UDEF_STEREO_COUNT>
0

> <PUBCHEM_BOND_DEF_STEREO_COUNT>
1

> <PUBCHEM_BOND_UDEF_STEREO_COUNT>
0

> <PUBCHEM_ISOTOPIC_ATOM_COUNT>
0

> <PUBCHEM_COMPONENT_COUNT>
1

> <PUBCHEM_CACTVS_TAUTO_COUNT>
1

> <PUBCHEM_CONFORMER_ID>
0051AD6700000001

> <PUBCHEM_MMFF94_ENERGY>
-1.7698

> <PUBCHEM_FEATURE_SELFOVERLAP>
20.297

> <PUBCHEM_SHAPE_FINGERPRINT>
11987891 36 18409450318659517298
14251705 54 18410295847538941967
14251710 61 18342747273514106486
14251717 144 18266454493867024591
14916288 52 17980765934942862342
19107657 46 18411418401528838263
20201158 50 18261673769811359979
20281407 28 18412266146568994721
20645477 70 17973996551752344207
23500284 5 18341618105184390569
23530152 11 17184192188996028461
23552423 10 18261680298182911204
8199 65 18337109097924500050

> <PUBCHEM_SHAPE_MULTIPOLES>
199.93
6.07
2.47
0.67
1.39
0.34
-0.01
4.07
0.03
0.25
-0.02
-0.02
-0.04
-0.09

> <PUBCHEM_SHAPE_SELFOVERLAP>
356.399

> <PUBCHEM_SHAPE_VOLUME>
129.7

> <PUBCHEM_COORDINATE_TYPE>
2
5
10

$$$$
