5352690
  -OEChem-11232109413D

 15 14  0     0  0  0  0  0  0999 V2000
   -0.0223   -1.0783    0.4335 S   0  0  0  0  0  0  0  0  0  0  0  0
    2.4031    0.9859   -0.2886 S   0  0  0  0  0  0  0  0  0  0  0  0
    1.4074   -0.6720   -0.9827 S   0  0  0  0  0  0  0  0  0  0  0  0
   -2.5195   -0.0747    0.4214 C   0  0  0  0  0  0  0  0  0  0  0  0
   -3.6677    0.7336   -0.0884 C   0  0  0  0  0  0  0  0  0  0  0  0
   -1.3273   -0.1309   -0.1864 C   0  0  0  0  0  0  0  0  0  0  0  0
    3.7262    0.2365    0.6914 C   0  0  0  0  0  0  0  0  0  0  0  0
   -2.6976   -0.6339    1.3370 H   0  0  0  0  0  0  0  0  0  0  0  0
   -4.5215    0.0800   -0.2917 H   0  0  0  0  0  0  0  0  0  0  0  0
   -3.9686    1.4685    0.6644 H   0  0  0  0  0  0  0  0  0  0  0  0
   -3.4223    1.2706   -1.0102 H   0  0  0  0  0  0  0  0  0  0  0  0
   -1.1783    0.4376   -1.0997 H   0  0  0  0  0  0  0  0  0  0  0  0
    4.3463    1.0301    1.1173 H   0  0  0  0  0  0  0  0  0  0  0  0
    4.3609   -0.3944    0.0632 H   0  0  0  0  0  0  0  0  0  0  0  0
    3.3119   -0.3527    1.5138 H   0  0  0  0  0  0  0  0  0  0  0  0
  1  3  1  0  0  0  0
  1  6  1  0  0  0  0
  2  3  1  0  0  0  0
  2  7  1  0  0  0  0
  4  5  1  0  0  0  0
  4  6  2  0  0  0  0
  4  8  1  0  0  0  0
  5  9  1  0  0  0  0
  5 10  1  0  0  0  0
  5 11  1  0  0  0  0
  6 12  1  0  0  0  0
  7 13  1  0  0  0  0
  7 14  1  0  0  0  0
  7 15  1  0  0  0  0
M  END
> <PUBCHEM_COMPOUND_CID>
5352690

> <PUBCHEM_CONFORMER_RMSD>
0.6

> <PUBCHEM_CONFORMER_DIVERSEORDER>
1
11
7
23
19
15
20
17
10
21
14
8
2
4
12
22
5
9
16
3
25
18
6
13
24

> <PUBCHEM_MMFF94_PARTIAL_CHARGES>
8
1 -0.1
12 0.15
2 -0.23
4 -0.29
5 0.14
6 -0.05
7 0.23
8 0.15

> <PUBCHEM_EFFECTIVE_ROTOR_COUNT>
3

> <PUBCHEM_PHARMACOPHORE_FEATURES>
3
1 5 hydrophobe
1 7 hydrophobe
4 1 2 3 6 hydrophobe

> <PUBCHEM_HEAVY_ATOM_COUNT>
7

> <PUBCHEM_ATOM_DEF_STEREO_COUNT>
0

> <PUBCHEM_ATOM_UDEF_STEREO_COUNT>
0

> <PUBCHEM_BOND_DEF_STEREO_COUNT>
1

> <PUBCHEM_BOND_UDEF_STEREO_COUNT>
0

> <PUBCHEM_ISOTOPIC_ATOM_COUNT>
0

> <PUBCHEM_COMPONENT_COUNT>
1

> <PUBCHEM_CACTVS_TAUTO_COUNT>
1

> <PUBCHEM_CONFORMER_ID>
0051ACF200000001

> <PUBCHEM_MMFF94_ENERGY>
-13.7804

> <PUBCHEM_FEATURE_SELFOVERLAP>
15.224

> <PUBCHEM_SHAPE_FINGERPRINT>
14325111 11 18333735748942143259
14390081 3 18409173177742430893
177051 138 12540706941652609697
17834069 15 17240751861829111694
18342897 14 18040997341205366900
18342897 55 16415757526699914533
20651381 17 18202001044910549090
21293036 1 13973963216099744181
23552423 10 14331751902060112055

> <PUBCHEM_SHAPE_MULTIPOLES>
155.61
6.55
1.14
0.94
1
0.04
-0.09
-2.42
0.99
-0.18
-0.03
-0.44
0.11
0.17

> <PUBCHEM_SHAPE_SELFOVERLAP>
239.732

> <PUBCHEM_SHAPE_VOLUME>
112.9

> <PUBCHEM_COORDINATE_TYPE>
2
5
10

$$$$
