5352162
  -OEChem-11232109473D

 40 39  0     0  0  0  0  0  0999 V2000
   -1.6341    1.0764   -0.0397 O   0  0  0  0  0  0  0  0  0  0  0  0
   -2.4633   -0.4353   -1.5728 O   0  0  0  0  0  0  0  0  0  0  0  0
    2.4634    1.1807   -0.2424 C   0  0  0  0  0  0  0  0  0  0  0  0
    2.4650    0.1350    0.8804 C   0  0  0  0  0  0  0  0  0  0  0  0
    1.5770    2.3762    0.0385 C   0  0  0  0  0  0  0  0  0  0  0  0
    3.3419   -1.0461    0.5688 C   0  0  0  0  0  0  0  0  0  0  0  0
    0.2724    2.4606   -0.2872 C   0  0  0  0  0  0  0  0  0  0  0  0
    2.2647    3.5411    0.7036 C   0  0  0  0  0  0  0  0  0  0  0  0
   -0.5838    1.4188   -0.9339 C   0  0  0  0  0  0  0  0  0  0  0  0
    2.9838   -2.2298    0.0363 C   0  0  0  0  0  0  0  0  0  0  0  0
   -3.5627   -0.1210    0.5738 C   0  0  0  0  0  0  0  0  0  0  0  0
   -4.5941   -1.1546    0.1285 C   0  0  0  0  0  0  0  0  0  0  0  0
   -2.5144    0.1259   -0.4870 C   0  0  0  0  0  0  0  0  0  0  0  0
    1.5929   -2.6073   -0.3869 C   0  0  0  0  0  0  0  0  0  0  0  0
    4.0150   -3.3022   -0.1951 C   0  0  0  0  0  0  0  0  0  0  0  0
   -5.6238   -1.4186    1.2150 C   0  0  0  0  0  0  0  0  0  0  0  0
    3.4894    1.5291   -0.4226 H   0  0  0  0  0  0  0  0  0  0  0  0
    2.1623    0.7082   -1.1857 H   0  0  0  0  0  0  0  0  0  0  0  0
    2.8269    0.5908    1.8110 H   0  0  0  0  0  0  0  0  0  0  0  0
    1.4406   -0.1896    1.0950 H   0  0  0  0  0  0  0  0  0  0  0  0
    4.3925   -0.8922    0.8131 H   0  0  0  0  0  0  0  0  0  0  0  0
   -0.2548    3.3839   -0.0490 H   0  0  0  0  0  0  0  0  0  0  0  0
    3.0764    3.9143    0.0704 H   0  0  0  0  0  0  0  0  0  0  0  0
    2.6871    3.2324    1.6653 H   0  0  0  0  0  0  0  0  0  0  0  0
    1.5826    4.3762    0.8949 H   0  0  0  0  0  0  0  0  0  0  0  0
   -0.0191    0.5171   -1.1871 H   0  0  0  0  0  0  0  0  0  0  0  0
   -1.0090    1.8343   -1.8549 H   0  0  0  0  0  0  0  0  0  0  0  0
   -4.0623    0.8299    0.7900 H   0  0  0  0  0  0  0  0  0  0  0  0
   -3.0536   -0.4710    1.4788 H   0  0  0  0  0  0  0  0  0  0  0  0
   -5.1036   -0.8075   -0.7784 H   0  0  0  0  0  0  0  0  0  0  0  0
   -4.0940   -2.0957   -0.1302 H   0  0  0  0  0  0  0  0  0  0  0  0
    1.2309   -3.4482    0.2136 H   0  0  0  0  0  0  0  0  0  0  0  0
    0.8751   -1.7901   -0.2825 H   0  0  0  0  0  0  0  0  0  0  0  0
    1.5876   -2.9072   -1.4403 H   0  0  0  0  0  0  0  0  0  0  0  0
    4.0697   -3.5524   -1.2596 H   0  0  0  0  0  0  0  0  0  0  0  0
    5.0164   -2.9960    0.1256 H   0  0  0  0  0  0  0  0  0  0  0  0
    3.7511   -4.2072    0.3619 H   0  0  0  0  0  0  0  0  0  0  0  0
   -6.1659   -0.5030    1.4723 H   0  0  0  0  0  0  0  0  0  0  0  0
   -5.1471   -1.8026    2.1225 H   0  0  0  0  0  0  0  0  0  0  0  0
   -6.3528   -2.1605    0.8744 H   0  0  0  0  0  0  0  0  0  0  0  0
  1  9  1  0  0  0  0
  1 13  1  0  0  0  0
  2 13  2  0  0  0  0
  3  4  1  0  0  0  0
  3  5  1  0  0  0  0
  3 17  1  0  0  0  0
  3 18  1  0  0  0  0
  4  6  1  0  0  0  0
  4 19  1  0  0  0  0
  4 20  1  0  0  0  0
  5  7  2  0  0  0  0
  5  8  1  0  0  0  0
  6 10  2  0  0  0  0
  6 21  1  0  0  0  0
  7  9  1  0  0  0  0
  7 22  1  0  0  0  0
  8 23  1  0  0  0  0
  8 24  1  0  0  0  0
  8 25  1  0  0  0  0
  9 26  1  0  0  0  0
  9 27  1  0  0  0  0
 10 14  1  0  0  0  0
 10 15  1  0  0  0  0
 11 12  1  0  0  0  0
 11 13  1  0  0  0  0
 11 28  1  0  0  0  0
 11 29  1  0  0  0  0
 12 16  1  0  0  0  0
 12 30  1  0  0  0  0
 12 31  1  0  0  0  0
 14 32  1  0  0  0  0
 14 33  1  0  0  0  0
 14 34  1  0  0  0  0
 15 35  1  0  0  0  0
 15 36  1  0  0  0  0
 15 37  1  0  0  0  0
 16 38  1  0  0  0  0
 16 39  1  0  0  0  0
 16 40  1  0  0  0  0
M  END
> <PUBCHEM_COMPOUND_CID>
5352162

> <PUBCHEM_CONFORMER_RMSD>
1

> <PUBCHEM_CONFORMER_DIVERSEORDER>
3
70
121
68
150
14
8
60
110
27
37
134
55
87
17
24
29
120
137
113
98
42
73
49
86
136
57
13
129
148
138
143
146
23
128
94
84
142
125
38
5
126
141
79
32
109
130
114
133
104
83
91
2
140
48
96
12
112
64
88
97
131
11
45
58
99
93
118
65
105
82
51
100
31
20
44
107
139
28
72
124
59
33
43
115
81
35
19
119
4
15
39
61
90
30
117
127
144
9
75
46
41
26
1
89
18
6
77
63
56
152
10
80
145
76
74
135
78
111
102
103
52
21
101
54
40
53
92
16
132
151
116
62
66
85
25
47
149
71
69
153
7
34
122
123
36
95
50
22
147
106
67
108

> <PUBCHEM_MMFF94_PARTIAL_CHARGES>
16
1 -0.43
10 -0.28
11 0.06
13 0.66
14 0.14
15 0.14
2 -0.57
21 0.15
22 0.15
3 0.14
4 0.14
5 -0.28
6 -0.29
7 -0.29
8 0.14
9 0.42

> <PUBCHEM_EFFECTIVE_ROTOR_COUNT>
8

> <PUBCHEM_PHARMACOPHORE_FEATURES>
5
1 16 hydrophobe
1 2 acceptor
1 8 hydrophobe
3 10 14 15 hydrophobe
4 3 4 5 6 hydrophobe

> <PUBCHEM_HEAVY_ATOM_COUNT>
16

> <PUBCHEM_ATOM_DEF_STEREO_COUNT>
0

> <PUBCHEM_ATOM_UDEF_STEREO_COUNT>
0

> <PUBCHEM_BOND_DEF_STEREO_COUNT>
1

> <PUBCHEM_BOND_UDEF_STEREO_COUNT>
0

> <PUBCHEM_ISOTOPIC_ATOM_COUNT>
0

> <PUBCHEM_COMPONENT_COUNT>
1

> <PUBCHEM_CACTVS_TAUTO_COUNT>
1

> <PUBCHEM_CONFORMER_ID>
0051AAE200000003

> <PUBCHEM_MMFF94_ENERGY>
9.6985

> <PUBCHEM_FEATURE_SELFOVERLAP>
25.376

> <PUBCHEM_SHAPE_FINGERPRINT>
114674 6 18187363259184120690
117890 22 18188217618858833155
12107183 9 18197793098474818673
12553582 1 18341322336598586980
12841375 5 18410576210403784204
13533116 47 18339087090074280691
14251705 54 18338511933243548566
14251731 5 18338518508738544222
14251764 30 18057058916854483606
14252887 29 18042122227521338681
14863182 85 18117280461508365132
15142526 21 17266654414508019249
15635459 17 18186803620792519339
17859628 70 18338521940258879018
20291156 8 18267582416681929342
20645477 70 18191281940516731165
21197605 99 17830743419142078555
21354914 76 18408324410547634633
21665056 4 16681751062386293132
2255824 54 18192996134794963900
23466295 7 17405723479930618366
3117164 225 18269007397211845329
31174 14 18409445907701581325
33824 294 18264770041847446048
3421961 26 18410293626940272577
5309563 4 18339080367818102439
5352402 22 18115312297282033403
8217 86 18196666107678268846

> <PUBCHEM_SHAPE_MULTIPOLES>
317.53
9.47
4.22
1.03
13.22
0.57
0.07
-8.19
-2.75
-5.95
-0.18
0.62
0
1.08

> <PUBCHEM_SHAPE_SELFOVERLAP>
594.922

> <PUBCHEM_SHAPE_VOLUME>
198.6

> <PUBCHEM_COORDINATE_TYPE>
2
5
10

$$$$
