5352973
  -OEChem-11232109213D

 36 35  0     0  0  0  0  0  0999 V2000
    0.2685    0.4551   -0.2932 O   0  0  0  0  0  0  0  0  0  0  0  0
   -1.2259    1.9990    0.5455 O   0  0  0  0  0  0  0  0  0  0  0  0
   -4.4236   -0.9037   -0.1139 C   0  0  0  0  0  0  0  0  0  0  0  0
   -3.4146    0.2196    0.1443 C   0  0  0  0  0  0  0  0  0  0  0  0
   -5.8521   -0.4413    0.1736 C   0  0  0  0  0  0  0  0  0  0  0  0
   -1.9785   -0.2019   -0.1666 C   0  0  0  0  0  0  0  0  0  0  0  0
   -6.8631   -1.5374   -0.1234 C   0  0  0  0  0  0  0  0  0  0  0  0
   -0.9671    0.8930    0.0914 C   0  0  0  0  0  0  0  0  0  0  0  0
    4.9619   -0.0296   -0.2806 C   0  0  0  0  0  0  0  0  0  0  0  0
    5.2821   -1.2967    0.5129 C   0  0  0  0  0  0  0  0  0  0  0  0
    1.3330    1.3990   -0.1377 C   0  0  0  0  0  0  0  0  0  0  0  0
    3.6786    0.5944    0.1852 C   0  0  0  0  0  0  0  0  0  0  0  0
    2.6054    0.7679   -0.6000 C   0  0  0  0  0  0  0  0  0  0  0  0
    6.5954   -1.9173    0.0626 C   0  0  0  0  0  0  0  0  0  0  0  0
   -4.1805   -1.7685    0.5152 H   0  0  0  0  0  0  0  0  0  0  0  0
   -4.3458   -1.2305   -1.1580 H   0  0  0  0  0  0  0  0  0  0  0  0
   -3.6747    1.0946   -0.4647 H   0  0  0  0  0  0  0  0  0  0  0  0
   -3.4830    0.5385    1.1921 H   0  0  0  0  0  0  0  0  0  0  0  0
   -5.9420   -0.1419    1.2243 H   0  0  0  0  0  0  0  0  0  0  0  0
   -6.0893    0.4384   -0.4360 H   0  0  0  0  0  0  0  0  0  0  0  0
   -1.9064   -0.4886   -1.2221 H   0  0  0  0  0  0  0  0  0  0  0  0
   -1.7069   -1.0639    0.4531 H   0  0  0  0  0  0  0  0  0  0  0  0
   -6.8218   -1.8346   -1.1762 H   0  0  0  0  0  0  0  0  0  0  0  0
   -6.6733   -2.4229    0.4915 H   0  0  0  0  0  0  0  0  0  0  0  0
   -7.8772   -1.1859    0.0907 H   0  0  0  0  0  0  0  0  0  0  0  0
    4.9147   -0.2666   -1.3506 H   0  0  0  0  0  0  0  0  0  0  0  0
    5.7687    0.7021   -0.1527 H   0  0  0  0  0  0  0  0  0  0  0  0
    5.3448   -1.0659    1.5834 H   0  0  0  0  0  0  0  0  0  0  0  0
    4.4768   -2.0309    0.3887 H   0  0  0  0  0  0  0  0  0  0  0  0
    1.3964    1.7048    0.9133 H   0  0  0  0  0  0  0  0  0  0  0  0
    1.1277    2.2817   -0.7542 H   0  0  0  0  0  0  0  0  0  0  0  0
    3.6437    0.9281    1.2195 H   0  0  0  0  0  0  0  0  0  0  0  0
    2.6421    0.4415   -1.6364 H   0  0  0  0  0  0  0  0  0  0  0  0
    6.8056   -2.8216    0.6423 H   0  0  0  0  0  0  0  0  0  0  0  0
    6.5559   -2.1940   -0.9959 H   0  0  0  0  0  0  0  0  0  0  0  0
    7.4278   -1.2209    0.2055 H   0  0  0  0  0  0  0  0  0  0  0  0
  1  8  1  0  0  0  0
  1 11  1  0  0  0  0
  2  8  2  0  0  0  0
  3  4  1  0  0  0  0
  3  5  1  0  0  0  0
  3 15  1  0  0  0  0
  3 16  1  0  0  0  0
  4  6  1  0  0  0  0
  4 17  1  0  0  0  0
  4 18  1  0  0  0  0
  5  7  1  0  0  0  0
  5 19  1  0  0  0  0
  5 20  1  0  0  0  0
  6  8  1  0  0  0  0
  6 21  1  0  0  0  0
  6 22  1  0  0  0  0
  7 23  1  0  0  0  0
  7 24  1  0  0  0  0
  7 25  1  0  0  0  0
  9 10  1  0  0  0  0
  9 12  1  0  0  0  0
  9 26  1  0  0  0  0
  9 27  1  0  0  0  0
 10 14  1  0  0  0  0
 10 28  1  0  0  0  0
 10 29  1  0  0  0  0
 11 13  1  0  0  0  0
 11 30  1  0  0  0  0
 11 31  1  0  0  0  0
 12 13  2  0  0  0  0
 12 32  1  0  0  0  0
 13 33  1  0  0  0  0
 14 34  1  0  0  0  0
 14 35  1  0  0  0  0
 14 36  1  0  0  0  0
M  END
> <PUBCHEM_COMPOUND_CID>
5352973

> <PUBCHEM_CONFORMER_RMSD>
0.8

> <PUBCHEM_CONFORMER_DIVERSEORDER>
1
122
131
211
149
187
151
115
28
249
39
241
42
90
79
209
210
217
186
126
17
227
261
178
384
15
3
163
160
299
347
18
108
264
219
101
29
316
199
271
72
385
176
246
54
162
23
169
155
48
221
243
27
86
7
99
30
6
118
83
114
220
205
71
383
129
63
19
88
147
22
157
346
95
142
62
89
98
171
8
105
214
341
51
382
35
254
334
234
14
145
174
196
167
140
70
183
111
5
223
34
68
380
182
359
20
274
284
343
50
170
326
213
255
290
46
315
53
208
257
247
386
107
344
82
180
301
11
236
203
61
215
130
117
276
218
232
300
381
37
235
311
195
153
333
278
67
75
92
74
240
10
363
204
295
56
260
332
198
194
102
137
93
94
156
120
76
33
251
252
44
287
350
110
360
159
47
106
237
314
146
184
13
239
36
127
45
9
225
177
320
193
141
307
289
262
41
229
24
4
270
100
112
312
25
238
329
87
288
327
230
103
331
64
21
277
66
2
244
26
269
228
303
104
328
282
133
309
144
338
121
91
49
52
148
245
123
364
85
197
259
306
367
58
97
55
351
165
84
323
279
250
154
263
330
77
73
192
377
275
304
181
43
308
32
258
31
318
206
80
365
336
317
296
294
339
354
362
113
335
340
319
168
374
150
349
60
81
132
172
201
16
109
175
231
212
185
356
158
179
116
324
297
325
191
353
69
190
134
337
65
321
57
59
136
135
124
152
233
253
226
138
358
286
12
345
305
248
373
242
313
38
202
207
280
40
139
322
348
273
298
200
166
222
281
189
379
371
96
357
272
267
268
161
355
375
173
302
256
366
283
125
78
119
266
342
188
376
361
285
128
216
164
265
292
369
224
310
143
352
378
372
293
291
370
368

> <PUBCHEM_MMFF94_PARTIAL_CHARGES>
10
1 -0.43
11 0.42
12 -0.29
13 -0.29
2 -0.57
32 0.15
33 0.15
6 0.06
8 0.66
9 0.14

> <PUBCHEM_EFFECTIVE_ROTOR_COUNT>
9

> <PUBCHEM_PHARMACOPHORE_FEATURES>
4
1 14 hydrophobe
1 2 acceptor
1 7 hydrophobe
4 3 4 5 6 hydrophobe

> <PUBCHEM_HEAVY_ATOM_COUNT>
14

> <PUBCHEM_ATOM_DEF_STEREO_COUNT>
0

> <PUBCHEM_ATOM_UDEF_STEREO_COUNT>
0

> <PUBCHEM_BOND_DEF_STEREO_COUNT>
1

> <PUBCHEM_BOND_UDEF_STEREO_COUNT>
0

> <PUBCHEM_ISOTOPIC_ATOM_COUNT>
0

> <PUBCHEM_COMPONENT_COUNT>
1

> <PUBCHEM_CACTVS_TAUTO_COUNT>
1

> <PUBCHEM_CONFORMER_ID>
0051AE0D00000001

> <PUBCHEM_MMFF94_ENERGY>
0.136

> <PUBCHEM_FEATURE_SELFOVERLAP>
20.298

> <PUBCHEM_SHAPE_FINGERPRINT>
100836 57 9583516525499219462
10354089 29 13254800148626374144
106641 1 18060131060401583938
10753850 27 18187078447439339506
11858739 19 18333729126102527479
12555020 224 18040997366949044091
12714333 28 10809344442794067166
13533116 47 18410293640347543776
13668630 136 18040715883371790683
13690532 89 18335421274708872612
13862211 1 18341613737281856087
14251752 14 18187922846858429301
15048467 5 10087642593765192119
15501527 16 9439401337349647069
15690457 1 18273208725182562023
1768 124 18060699477115942942
17834072 8 16515684459210220795
17834076 25 10665220467141361589
19784866 240 18186806872003647348
20526848 3 9655573028521008914
20605781 2 9871751295138769884
20621476 21 17024043738466288283
20621476 30 18190743231691882051
20621476 38 18337954593008441891
20621476 8 18187080634289895109
20645477 70 18113054944075699116
20735858 18 17060338526218428878
20767249 213 10015866479051507821
21130983 4 9295293850329643943
21267235 1 18409735053542675426
22079108 93 14045739330997986724
22224240 67 12607408797872938213
23272321 79 9727632804602315537
23402539 116 18130786776813624845
23402655 69 11674874515579778465
23559900 14 18115870865725741113
23590187 198 18410012156654063955
270888 7 9655282740661641058
28498 318 18334853914499148303
2916195 48 12103853349776066547
29717793 49 17676207978806206012
3004659 81 17967249806358893730
33532 11 18335701680756146099
3472631 163 8646477540674311450
351380 3 18409727365604138522
465052 167 18412548738353123694
559249 180 18410291372604525489
77188 2 18409730685704425836

> <PUBCHEM_SHAPE_MULTIPOLES>
276.37
18.23
1.76
0.69
3.7
0.17
0
14.36
0.4
-1.07
0.13
-0.14
-0.02
-0.55

> <PUBCHEM_SHAPE_SELFOVERLAP>
506.346

> <PUBCHEM_SHAPE_VOLUME>
175.6

> <PUBCHEM_COORDINATE_TYPE>
2
5
10

$$$$
