5352974
  -OEChem-11232109133D

 33 32  0     0  0  0  0  0  0999 V2000
    0.2839    0.3485    0.3304 O   0  0  0  0  0  0  0  0  0  0  0  0
    1.8897    1.7455   -0.5601 O   0  0  0  0  0  0  0  0  0  0  0  0
    3.9192   -0.1713   -0.1533 C   0  0  0  0  0  0  0  0  0  0  0  0
    4.8503   -1.3279    0.2075 C   0  0  0  0  0  0  0  0  0  0  0  0
    2.4796   -0.4650    0.2655 C   0  0  0  0  0  0  0  0  0  0  0  0
   -4.4297    0.1535    0.2356 C   0  0  0  0  0  0  0  0  0  0  0  0
    6.2903   -1.0233   -0.1729 C   0  0  0  0  0  0  0  0  0  0  0  0
   -4.8129   -1.1356   -0.4915 C   0  0  0  0  0  0  0  0  0  0  0  0
    1.5519    0.6863   -0.0496 C   0  0  0  0  0  0  0  0  0  0  0  0
   -3.1008    0.6691   -0.2348 C   0  0  0  0  0  0  0  0  0  0  0  0
   -0.7161    1.3454    0.0964 C   0  0  0  0  0  0  0  0  0  0  0  0
   -2.0344    0.8219    0.5641 C   0  0  0  0  0  0  0  0  0  0  0  0
   -6.1712   -1.6471   -0.0375 C   0  0  0  0  0  0  0  0  0  0  0  0
    3.9599    0.0153   -1.2338 H   0  0  0  0  0  0  0  0  0  0  0  0
    4.2654    0.7469    0.3378 H   0  0  0  0  0  0  0  0  0  0  0  0
    4.5263   -2.2405   -0.3061 H   0  0  0  0  0  0  0  0  0  0  0  0
    4.7990   -1.5258    1.2846 H   0  0  0  0  0  0  0  0  0  0  0  0
    2.4379   -0.6487    1.3450 H   0  0  0  0  0  0  0  0  0  0  0  0
    2.1160   -1.3535   -0.2628 H   0  0  0  0  0  0  0  0  0  0  0  0
   -4.4187   -0.0230    1.3182 H   0  0  0  0  0  0  0  0  0  0  0  0
   -5.1862    0.9248    0.0473 H   0  0  0  0  0  0  0  0  0  0  0  0
   -4.0579   -1.9094   -0.3067 H   0  0  0  0  0  0  0  0  0  0  0  0
   -4.8395   -0.9643   -1.5746 H   0  0  0  0  0  0  0  0  0  0  0  0
    6.9385   -1.8643    0.0926 H   0  0  0  0  0  0  0  0  0  0  0  0
    6.6553   -0.1345    0.3517 H   0  0  0  0  0  0  0  0  0  0  0  0
    6.3831   -0.8495   -1.2497 H   0  0  0  0  0  0  0  0  0  0  0  0
   -3.0245    0.9389   -1.2853 H   0  0  0  0  0  0  0  0  0  0  0  0
   -0.4680    2.2483    0.6660 H   0  0  0  0  0  0  0  0  0  0  0  0
   -0.7393    1.5924   -0.9716 H   0  0  0  0  0  0  0  0  0  0  0  0
   -2.1121    0.5596    1.6162 H   0  0  0  0  0  0  0  0  0  0  0  0
   -6.4260   -2.5690   -0.5695 H   0  0  0  0  0  0  0  0  0  0  0  0
   -6.1703   -1.8633    1.0356 H   0  0  0  0  0  0  0  0  0  0  0  0
   -6.9553   -0.9104   -0.2395 H   0  0  0  0  0  0  0  0  0  0  0  0
  1  9  1  0  0  0  0
  1 11  1  0  0  0  0
  2  9  2  0  0  0  0
  3  4  1  0  0  0  0
  3  5  1  0  0  0  0
  3 14  1  0  0  0  0
  3 15  1  0  0  0  0
  4  7  1  0  0  0  0
  4 16  1  0  0  0  0
  4 17  1  0  0  0  0
  5  9  1  0  0  0  0
  5 18  1  0  0  0  0
  5 19  1  0  0  0  0
  6  8  1  0  0  0  0
  6 10  1  0  0  0  0
  6 20  1  0  0  0  0
  6 21  1  0  0  0  0
  7 24  1  0  0  0  0
  7 25  1  0  0  0  0
  7 26  1  0  0  0  0
  8 13  1  0  0  0  0
  8 22  1  0  0  0  0
  8 23  1  0  0  0  0
 10 12  2  0  0  0  0
 10 27  1  0  0  0  0
 11 12  1  0  0  0  0
 11 28  1  0  0  0  0
 11 29  1  0  0  0  0
 12 30  1  0  0  0  0
 13 31  1  0  0  0  0
 13 32  1  0  0  0  0
 13 33  1  0  0  0  0
M  END
> <PUBCHEM_COMPOUND_CID>
5352974

> <PUBCHEM_CONFORMER_RMSD>
0.8

> <PUBCHEM_CONFORMER_DIVERSEORDER>
1
59
184
163
96
15
122
98
7
30
157
147
4
16
86
10
200
91
95
2
33
196
149
45
150
142
188
206
128
121
210
26
43
52
180
189
84
49
97
113
72
63
51
28
80
92
205
41
40
37
78
199
13
208
12
131
118
164
191
211
185
46
114
103
73
11
123
56
34
201
90
214
192
29
67
183
182
83
85
64
111
161
106
35
76
50
3
65
39
88
169
202
181
32
38
198
54
58
138
215
178
132
145
151
110
130
195
21
9
152
31
93
104
115
117
36
203
140
168
17
71
197
5
108
154
109
89
177
44
126
87
125
19
81
213
25
153
69
133
24
124
99
187
60
101
68
61
70
179
146
57
207
194
74
79
190
212
216
55
77
144
62
75
53
166
209
20
136
129
94
204
82
160
14
6
148
173
42
8
18
155
172
137
100
127
23
66
158
47
176
186
134
141
102
22
159
171
107
143
193
162
175
48
156
112
170
174
27
116
139
120
165
119
135
105
167

> <PUBCHEM_MMFF94_PARTIAL_CHARGES>
10
1 -0.43
10 -0.29
11 0.42
12 -0.29
2 -0.57
27 0.15
30 0.15
5 0.06
6 0.14
9 0.66

> <PUBCHEM_EFFECTIVE_ROTOR_COUNT>
8

> <PUBCHEM_PHARMACOPHORE_FEATURES>
3
1 13 hydrophobe
1 2 acceptor
1 7 hydrophobe

> <PUBCHEM_HEAVY_ATOM_COUNT>
13

> <PUBCHEM_ATOM_DEF_STEREO_COUNT>
0

> <PUBCHEM_ATOM_UDEF_STEREO_COUNT>
0

> <PUBCHEM_BOND_DEF_STEREO_COUNT>
1

> <PUBCHEM_BOND_UDEF_STEREO_COUNT>
0

> <PUBCHEM_ISOTOPIC_ATOM_COUNT>
0

> <PUBCHEM_COMPONENT_COUNT>
1

> <PUBCHEM_CACTVS_TAUTO_COUNT>
1

> <PUBCHEM_CONFORMER_ID>
0051AE0E00000001

> <PUBCHEM_MMFF94_ENERGY>
0.2317

> <PUBCHEM_FEATURE_SELFOVERLAP>
15.223

> <PUBCHEM_SHAPE_FINGERPRINT>
100836 57 9367343751590423802
11089746 13 11314313879354441874
117890 112 8502368932430317246
12555020 224 17967814963978720835
12714333 28 13479136791559662982
13288520 33 18411699885838983077
13690532 89 18408886222118431672
13740256 8 18413388747919575689
13862211 1 18261672593481015818
13911882 115 17632587019722671894
13964095 4 18114456783078802109
14123255 352 8286202755897100395
14123256 34 18411426119775180971
1420 363 17918275342249500614
1420 369 18272655631867549727
14251718 22 18407760326870501194
14251732 16 18272647978768500368
14252887 29 15769503057768094700
14350574 20 18259985985250437957
14576447 43 18259701177537582290
15048467 5 9079115557250612271
15477762 27 18407761434761294412
15501527 24 17894636937584937114
17834072 33 18410014342887480268
17834076 25 9151168753283954282
193927 3 18340781398347496975
19784866 240 18411423912361989693
200 152 18410575080632044321
20526848 3 8862943896339882407
20645477 70 18260547852634743328
20767249 213 8935002573236608835
21150785 3 18333740134910744566
212847 35 10737273671701594813
21426921 1 18339079268533275993
22896161 15 18413107277934041098
23402539 116 18408884001710250845
270888 7 8502113859061141695
293599 30 8502652614608579528
351380 3 18412260649311620583
49783359 22 17917989477742340983
559249 180 18412824664907151927
57483677 66 18410008802158213194
59682541 35 18271234015874360680

> <PUBCHEM_SHAPE_MULTIPOLES>
255.8
15.46
1.63
0.69
0.35
0.08
0
11.12
0.82
-0.64
0.1
-0.08
-0.02
-0.42

> <PUBCHEM_SHAPE_SELFOVERLAP>
468.916

> <PUBCHEM_SHAPE_VOLUME>
162.5

> <PUBCHEM_COORDINATE_TYPE>
2
5
10

$$$$
