5352836
  -OEChem-11232108583D

 25 24  0     0  0  0  0  0  0999 V2000
   -3.4338    1.5051   -0.3778 O   0  0  0  0  0  0  0  0  0  0  0  0
   -0.9712   -1.1823    0.5335 C   0  0  0  0  0  0  0  0  0  0  0  0
   -1.7056   -0.1518   -0.3220 C   0  0  0  0  0  0  0  0  0  0  0  0
    1.8860   -0.2374    0.4616 C   0  0  0  0  0  0  0  0  0  0  0  0
    2.4860    0.7931   -0.4951 C   0  0  0  0  0  0  0  0  0  0  0  0
    0.1138   -1.8634   -0.2487 C   0  0  0  0  0  0  0  0  0  0  0  0
    1.3869   -1.4427   -0.2809 C   0  0  0  0  0  0  0  0  0  0  0  0
   -2.7802    0.5751    0.4747 C   0  0  0  0  0  0  0  0  0  0  0  0
    3.0181    2.0044    0.2550 C   0  0  0  0  0  0  0  0  0  0  0  0
   -0.6045   -0.7369    1.4630 H   0  0  0  0  0  0  0  0  0  0  0  0
   -1.6825   -1.9543    0.8554 H   0  0  0  0  0  0  0  0  0  0  0  0
   -2.1630   -0.6345   -1.1955 H   0  0  0  0  0  0  0  0  0  0  0  0
   -1.0021    0.5874   -0.7265 H   0  0  0  0  0  0  0  0  0  0  0  0
    1.1208    0.2562    1.0643 H   0  0  0  0  0  0  0  0  0  0  0  0
    2.6595   -0.5727    1.1638 H   0  0  0  0  0  0  0  0  0  0  0  0
    1.7270    1.1230   -1.2150 H   0  0  0  0  0  0  0  0  0  0  0  0
    3.3029    0.3428   -1.0721 H   0  0  0  0  0  0  0  0  0  0  0  0
   -0.1629   -2.7401   -0.8282 H   0  0  0  0  0  0  0  0  0  0  0  0
    2.1066   -2.0015   -0.8736 H   0  0  0  0  0  0  0  0  0  0  0  0
   -3.5256   -0.1291    0.8578 H   0  0  0  0  0  0  0  0  0  0  0  0
   -2.3406    1.1219    1.3150 H   0  0  0  0  0  0  0  0  0  0  0  0
    3.4451    2.7272   -0.4473 H   0  0  0  0  0  0  0  0  0  0  0  0
    2.2187    2.5038    0.8117 H   0  0  0  0  0  0  0  0  0  0  0  0
    3.8015    1.7147    0.9626 H   0  0  0  0  0  0  0  0  0  0  0  0
   -4.1122    1.9530    0.1557 H   0  0  0  0  0  0  0  0  0  0  0  0
  1  8  1  0  0  0  0
  1 25  1  0  0  0  0
  2  3  1  0  0  0  0
  2  6  1  0  0  0  0
  2 10  1  0  0  0  0
  2 11  1  0  0  0  0
  3  8  1  0  0  0  0
  3 12  1  0  0  0  0
  3 13  1  0  0  0  0
  4  5  1  0  0  0  0
  4  7  1  0  0  0  0
  4 14  1  0  0  0  0
  4 15  1  0  0  0  0
  5  9  1  0  0  0  0
  5 16  1  0  0  0  0
  5 17  1  0  0  0  0
  6  7  2  0  0  0  0
  6 18  1  0  0  0  0
  7 19  1  0  0  0  0
  8 20  1  0  0  0  0
  8 21  1  0  0  0  0
  9 22  1  0  0  0  0
  9 23  1  0  0  0  0
  9 24  1  0  0  0  0
M  END
> <PUBCHEM_COMPOUND_CID>
5352836

> <PUBCHEM_CONFORMER_RMSD>
0.6

> <PUBCHEM_CONFORMER_DIVERSEORDER>
4
31
87
131
36
118
46
121
2
107
119
101
67
90
24
12
55
78
130
68
48
27
77
7
116
29
134
89
113
92
102
73
30
96
84
64
133
28
21
125
9
135
74
10
127
11
5
85
59
19
38
117
65
26
86
69
126
34
109
3
114
35
52
124
58
76
115
71
51
88
122
23
83
105
54
66
62
91
13
44
128
94
41
120
57
106
33
49
1
39
100
6
123
111
60
56
16
63
37
98
112
17
72
14
95
79
45
103
93
75
132
22
129
104
25
18
47
43
15
50
20
61
42
99
40
8
70
97
32
82
108
81
80
110
53

> <PUBCHEM_MMFF94_PARTIAL_CHARGES>
9
1 -0.68
18 0.15
19 0.15
2 0.14
25 0.4
4 0.14
6 -0.29
7 -0.29
8 0.28

> <PUBCHEM_EFFECTIVE_ROTOR_COUNT>
5

> <PUBCHEM_PHARMACOPHORE_FEATURES>
3
1 1 acceptor
1 1 donor
1 9 hydrophobe

> <PUBCHEM_HEAVY_ATOM_COUNT>
9

> <PUBCHEM_ATOM_DEF_STEREO_COUNT>
0

> <PUBCHEM_ATOM_UDEF_STEREO_COUNT>
0

> <PUBCHEM_BOND_DEF_STEREO_COUNT>
1

> <PUBCHEM_BOND_UDEF_STEREO_COUNT>
0

> <PUBCHEM_ISOTOPIC_ATOM_COUNT>
0

> <PUBCHEM_COMPONENT_COUNT>
1

> <PUBCHEM_CACTVS_TAUTO_COUNT>
1

> <PUBCHEM_CONFORMER_ID>
0051AD8400000004

> <PUBCHEM_MMFF94_ENERGY>
1.1754

> <PUBCHEM_FEATURE_SELFOVERLAP>
15.223

> <PUBCHEM_SHAPE_FINGERPRINT>
10149128 111 18412547617113477633
10149128 76 18410855477366137712
10857977 72 16878809122687664627
13618510 140 18411421695779557009
14128692 85 10303548229161065234
14390081 3 18411984692950796595
15775835 57 18410013264397118580
170605 34 18408604742862707995
18342897 96 18270961370327166582
20605781 55 18339640139331525328
20653085 51 18342747333538146830
20671657 1 18339645533932060742
21028194 46 18410019861419263138
21524375 3 18411133675383210210
8050 44 18408317761880556517

> <PUBCHEM_SHAPE_MULTIPOLES>
179.35
5.28
2.16
0.76
1.22
0.07
-0.02
4.36
0.05
-0.47
0.09
0
0
0.27

> <PUBCHEM_SHAPE_SELFOVERLAP>
319.005

> <PUBCHEM_SHAPE_VOLUME>
116.6

> <PUBCHEM_COORDINATE_TYPE>
2
5
10

$$$$
