5352774
  -OEChem-11232109453D

 27 26  0     0  0  0  0  0  0999 V2000
   -3.1592   -0.1083    0.7743 O   0  0  0  0  0  0  0  0  0  0  0  0
   -2.2026   -0.7268   -1.2311 O   0  0  0  0  0  0  0  0  0  0  0  0
    2.5223   -0.0196    0.7698 C   0  0  0  0  0  0  0  0  0  0  0  0
    0.0839    0.8859   -0.7467 C   0  0  0  0  0  0  0  0  0  0  0  0
    3.3008   -0.7922   -0.2981 C   0  0  0  0  0  0  0  0  0  0  0  0
   -1.0592    0.8107    0.2662 C   0  0  0  0  0  0  0  0  0  0  0  0
    2.2641    1.4071    0.3813 C   0  0  0  0  0  0  0  0  0  0  0  0
    1.1783    1.8112   -0.2942 C   0  0  0  0  0  0  0  0  0  0  0  0
    3.5542   -2.2460    0.0773 C   0  0  0  0  0  0  0  0  0  0  0  0
   -2.1781   -0.1085   -0.1754 C   0  0  0  0  0  0  0  0  0  0  0  0
   -4.3045   -0.9135    0.4766 C   0  0  0  0  0  0  0  0  0  0  0  0
    3.0947   -0.0169    1.7062 H   0  0  0  0  0  0  0  0  0  0  0  0
    1.5887   -0.5434    1.0043 H   0  0  0  0  0  0  0  0  0  0  0  0
    0.4620   -0.1193   -0.9627 H   0  0  0  0  0  0  0  0  0  0  0  0
   -0.2987    1.2564   -1.7066 H   0  0  0  0  0  0  0  0  0  0  0  0
    4.2661   -0.3009   -0.4737 H   0  0  0  0  0  0  0  0  0  0  0  0
    2.7598   -0.7681   -1.2516 H   0  0  0  0  0  0  0  0  0  0  0  0
   -1.4843    1.8103    0.4159 H   0  0  0  0  0  0  0  0  0  0  0  0
   -0.6844    0.4421    1.2282 H   0  0  0  0  0  0  0  0  0  0  0  0
    3.0123    2.1441    0.6605 H   0  0  0  0  0  0  0  0  0  0  0  0
    1.0671    2.8670   -0.5260 H   0  0  0  0  0  0  0  0  0  0  0  0
    4.1180   -2.7503   -0.7137 H   0  0  0  0  0  0  0  0  0  0  0  0
    4.1313   -2.3142    1.0048 H   0  0  0  0  0  0  0  0  0  0  0  0
    2.6103   -2.7819    0.2187 H   0  0  0  0  0  0  0  0  0  0  0  0
   -4.7931   -0.5549   -0.4344 H   0  0  0  0  0  0  0  0  0  0  0  0
   -5.0073   -0.8260    1.3095 H   0  0  0  0  0  0  0  0  0  0  0  0
   -4.0129   -1.9628    0.3721 H   0  0  0  0  0  0  0  0  0  0  0  0
  1 10  1  0  0  0  0
  1 11  1  0  0  0  0
  2 10  2  0  0  0  0
  3  5  1  0  0  0  0
  3  7  1  0  0  0  0
  3 12  1  0  0  0  0
  3 13  1  0  0  0  0
  4  6  1  0  0  0  0
  4  8  1  0  0  0  0
  4 14  1  0  0  0  0
  4 15  1  0  0  0  0
  5  9  1  0  0  0  0
  5 16  1  0  0  0  0
  5 17  1  0  0  0  0
  6 10  1  0  0  0  0
  6 18  1  0  0  0  0
  6 19  1  0  0  0  0
  7  8  2  0  0  0  0
  7 20  1  0  0  0  0
  8 21  1  0  0  0  0
  9 22  1  0  0  0  0
  9 23  1  0  0  0  0
  9 24  1  0  0  0  0
 11 25  1  0  0  0  0
 11 26  1  0  0  0  0
 11 27  1  0  0  0  0
M  END
> <PUBCHEM_COMPOUND_CID>
5352774

> <PUBCHEM_CONFORMER_RMSD>
0.6

> <PUBCHEM_CONFORMER_DIVERSEORDER>
1
236
29
74
199
57
232
212
7
201
99
116
11
145
170
63
181
262
92
183
18
189
207
84
216
246
69
197
104
135
45
220
4
198
265
211
38
42
114
6
254
80
89
147
200
34
250
251
35
64
242
67
229
19
249
53
191
87
253
44
50
17
142
98
257
109
22
143
194
110
209
71
208
54
115
37
260
185
238
96
233
111
177
225
179
124
131
101
41
226
21
39
231
66
30
5
186
107
214
193
97
32
52
10
205
178
126
95
268
139
68
267
165
31
161
108
196
152
160
23
90
255
93
172
20
26
171
192
72
223
9
174
237
12
77
180
94
167
78
266
85
55
184
155
258
2
82
230
119
36
163
113
112
204
47
219
105
40
166
137
123
169
140
48
79
218
125
73
144
134
141
51
222
190
162
234
118
132
224
210
56
269
33
100
75
65
263
60
256
173
121
168
228
261
149
14
188
244
176
83
175
8
106
138
154
248
129
153
195
120
24
227
136
122
182
91
259
235
127
81
61
202
86
58
70
206
146
239
76
157
156
88
49
203
25
150
221
15
217
46
247
148
117
252
103
3
102
151
241
187
43
159
16
130
59
128
133
28
213
13
27
270
164
245
62
240
215
158
243
264

> <PUBCHEM_MMFF94_PARTIAL_CHARGES>
11
1 -0.43
10 0.66
11 0.28
2 -0.57
20 0.15
21 0.15
3 0.14
4 0.14
6 0.06
7 -0.29
8 -0.29

> <PUBCHEM_EFFECTIVE_ROTOR_COUNT>
6

> <PUBCHEM_PHARMACOPHORE_FEATURES>
2
1 2 acceptor
1 9 hydrophobe

> <PUBCHEM_HEAVY_ATOM_COUNT>
11

> <PUBCHEM_ATOM_DEF_STEREO_COUNT>
0

> <PUBCHEM_ATOM_UDEF_STEREO_COUNT>
0

> <PUBCHEM_BOND_DEF_STEREO_COUNT>
1

> <PUBCHEM_BOND_UDEF_STEREO_COUNT>
0

> <PUBCHEM_ISOTOPIC_ATOM_COUNT>
0

> <PUBCHEM_COMPONENT_COUNT>
1

> <PUBCHEM_CACTVS_TAUTO_COUNT>
1

> <PUBCHEM_CONFORMER_ID>
0051AD4600000001

> <PUBCHEM_MMFF94_ENERGY>
6.2332

> <PUBCHEM_FEATURE_SELFOVERLAP>
10.148

> <PUBCHEM_SHAPE_FINGERPRINT>
12006461 19 18410015411922932338
122479 349 10879408618040285398
12932764 1 18059573654249134837
13296908 3 18259978271278411717
14251710 61 18335424547273563643
14251731 5 18195530290354296638
14252887 29 18334575776116090272
14390081 3 9439404648516322076
177051 138 18411421734665903681
19766037 51 18040730138093666610
20231682 184 10881405335393207104
20449540 30 8357960196155863239
20645477 70 18261662774900719615
20671657 53 17095523963965448492
20711985 344 17606665934292421036
20767249 462 10375572816338614562
20871998 22 18336261263217421128
22926399 37 8142083161211309079
22959321 54 8790888488355574415
230 275 12103851189317852448
23500284 5 18196372511875788224
23557571 272 14924207357497927132
328317 168 9943511990983080931
43658 37 8141786267080446750
4416823 128 18337392634865002618
94968 8 18187368722788436210

> <PUBCHEM_SHAPE_MULTIPOLES>
214.64
7.43
1.9
0.92
3.81
0.28
-0.08
4.77
1.12
-1.99
-0.06
0.24
0.02
0.16

> <PUBCHEM_SHAPE_SELFOVERLAP>
393.977

> <PUBCHEM_SHAPE_VOLUME>
136.3

> <PUBCHEM_COORDINATE_TYPE>
2
5
10

$$$$
