5352626
  -OEChem-11232109463D

 28 28  0     1  0  0  0  0  0999 V2000
    0.7171   -0.5554   -0.2843 O   0  0  0  0  0  0  0  0  0  0  0  0
    2.1245   -2.3030   -0.0892 O   0  0  0  0  0  0  0  0  0  0  0  0
    0.5386    0.8574   -0.5340 C   0  0  2  0  0  0  0  0  0  0  0  0
    1.4008    1.7225    0.3714 C   0  0  0  0  0  0  0  0  0  0  0  0
    2.8384    1.2627    0.2409 C   0  0  0  0  0  0  0  0  0  0  0  0
   -0.9404    1.1709   -0.3526 C   0  0  0  0  0  0  0  0  0  0  0  0
    2.9427   -0.1889    0.6593 C   0  0  0  0  0  0  0  0  0  0  0  0
    1.9184   -1.0970    0.0284 C   0  0  0  0  0  0  0  0  0  0  0  0
   -1.7936    0.2956   -1.2210 C   0  0  0  0  0  0  0  0  0  0  0  0
   -2.7017   -0.5686   -0.7442 C   0  0  0  0  0  0  0  0  0  0  0  0
   -2.9771   -0.7674    0.7169 C   0  0  0  0  0  0  0  0  0  0  0  0
   -4.0678    0.1713    1.2084 C   0  0  0  0  0  0  0  0  0  0  0  0
    0.8177    1.0268   -1.5825 H   0  0  0  0  0  0  0  0  0  0  0  0
    1.0835    1.6237    1.4169 H   0  0  0  0  0  0  0  0  0  0  0  0
    1.3112    2.7788    0.0950 H   0  0  0  0  0  0  0  0  0  0  0  0
    3.4932    1.8803    0.8652 H   0  0  0  0  0  0  0  0  0  0  0  0
    3.1748    1.3790   -0.7966 H   0  0  0  0  0  0  0  0  0  0  0  0
   -1.1275    2.2145   -0.6357 H   0  0  0  0  0  0  0  0  0  0  0  0
   -1.2028    1.0997    0.7061 H   0  0  0  0  0  0  0  0  0  0  0  0
    2.8241   -0.2748    1.7457 H   0  0  0  0  0  0  0  0  0  0  0  0
    3.9394   -0.5618    0.3983 H   0  0  0  0  0  0  0  0  0  0  0  0
   -1.6707    0.3831   -2.2974 H   0  0  0  0  0  0  0  0  0  0  0  0
   -3.2909   -1.1504   -1.4481 H   0  0  0  0  0  0  0  0  0  0  0  0
   -3.3111   -1.8030    0.8575 H   0  0  0  0  0  0  0  0  0  0  0  0
   -2.0774   -0.6735    1.3327 H   0  0  0  0  0  0  0  0  0  0  0  0
   -4.9942    0.0357    0.6398 H   0  0  0  0  0  0  0  0  0  0  0  0
   -4.2883   -0.0271    2.2622 H   0  0  0  0  0  0  0  0  0  0  0  0
   -3.7641    1.2196    1.1200 H   0  0  0  0  0  0  0  0  0  0  0  0
  1  3  1  0  0  0  0
  1  8  1  0  0  0  0
  2  8  2  0  0  0  0
  3  4  1  0  0  0  0
  3  6  1  0  0  0  0
  3 13  1  0  0  0  0
  4  5  1  0  0  0  0
  4 14  1  0  0  0  0
  4 15  1  0  0  0  0
  5  7  1  0  0  0  0
  5 16  1  0  0  0  0
  5 17  1  0  0  0  0
  6  9  1  0  0  0  0
  6 18  1  0  0  0  0
  6 19  1  0  0  0  0
  7  8  1  0  0  0  0
  7 20  1  0  0  0  0
  7 21  1  0  0  0  0
  9 10  2  0  0  0  0
  9 22  1  0  0  0  0
 10 11  1  0  0  0  0
 10 23  1  0  0  0  0
 11 12  1  0  0  0  0
 11 24  1  0  0  0  0
 11 25  1  0  0  0  0
 12 26  1  0  0  0  0
 12 27  1  0  0  0  0
 12 28  1  0  0  0  0
M  END
> <PUBCHEM_COMPOUND_CID>
5352626

> <PUBCHEM_CONFORMER_RMSD>
0.6

> <PUBCHEM_CONFORMER_DIVERSEORDER>
11
47
33
49
44
35
8
50
38
19
48
40
13
9
36
26
45
23
18
32
2
41
43
46
28
7
5
16
22
25
15
4
30
42
3
31
27
1
20
37
12
21
10
17
29
39
24
14
34
6

> <PUBCHEM_MMFF94_PARTIAL_CHARGES>
11
1 -0.43
10 -0.29
11 0.14
2 -0.57
22 0.15
23 0.15
3 0.28
6 0.14
7 0.06
8 0.66
9 -0.29

> <PUBCHEM_EFFECTIVE_ROTOR_COUNT>
4

> <PUBCHEM_PHARMACOPHORE_FEATURES>
3
1 12 hydrophobe
1 2 acceptor
6 1 3 4 5 7 8 rings

> <PUBCHEM_HEAVY_ATOM_COUNT>
12

> <PUBCHEM_ATOM_DEF_STEREO_COUNT>
0

> <PUBCHEM_ATOM_UDEF_STEREO_COUNT>
1

> <PUBCHEM_BOND_DEF_STEREO_COUNT>
1

> <PUBCHEM_BOND_UDEF_STEREO_COUNT>
0

> <PUBCHEM_ISOTOPIC_ATOM_COUNT>
0

> <PUBCHEM_COMPONENT_COUNT>
1

> <PUBCHEM_CACTVS_TAUTO_COUNT>
1

> <PUBCHEM_CONFORMER_ID>
0051ACB20000000B

> <PUBCHEM_MMFF94_ENERGY>
12.8601

> <PUBCHEM_FEATURE_SELFOVERLAP>
15.223

> <PUBCHEM_SHAPE_FINGERPRINT>
107287 299 18334579091788449524
11471102 22 18409445894890408968
12251169 10 18272655657969376905
12382932 28 18340771537091944971
12932764 1 18201996650990525277
13296908 3 17821722828035934749
13764800 53 14836132091273200075
14252887 29 18041007266837644201
15219456 202 18260259750623923221
15501101 241 18335417988932303796
15775835 57 17560805463168969265
16945 1 18340756126659674660
17844478 74 18113052740282865717
19766037 51 18190481392556029815
201361 129 18130233747432940560
20201158 50 18261103084690371195
20279233 1 17968085443785990135
20281407 28 17749112197008472155
20645477 70 18337091398601488231
20767249 442 15410901743074258569
20871998 22 18127977395433943398
21061003 4 18409443726006290741
21730867 7 18334856155638542324
22445834 79 18272652372240313159
23402539 116 7853040237434856096
23557571 272 16588291778923543236
2748010 2 18124298429437415932
581208 293 18338226175888921316

> <PUBCHEM_SHAPE_MULTIPOLES>
235.22
6.12
1.72
1.05
3.73
0.43
0.01
0.67
2.11
-1.43
0.01
0.86
-0.07
0.16

> <PUBCHEM_SHAPE_SELFOVERLAP>
458.739

> <PUBCHEM_SHAPE_VOLUME>
141.3

> <PUBCHEM_COORDINATE_TYPE>
2
5
10

$$$$
