5352819
  -OEChem-11232109223D

 30 29  0     0  0  0  0  0  0999 V2000
    2.5714    0.2517   -0.4067 O   0  0  0  0  0  0  0  0  0  0  0  0
    3.8251   -1.0812    1.0035 O   0  0  0  0  0  0  0  0  0  0  0  0
   -0.8793    1.0238    0.8634 C   0  0  0  0  0  0  0  0  0  0  0  0
    0.3278    1.0194   -0.0726 C   0  0  0  0  0  0  0  0  0  0  0  0
   -3.0553   -0.2242   -0.8006 C   0  0  0  0  0  0  0  0  0  0  0  0
   -2.0231    1.7945    0.2712 C   0  0  0  0  0  0  0  0  0  0  0  0
    1.4788    0.2041    0.5004 C   0  0  0  0  0  0  0  0  0  0  0  0
   -3.8268   -1.0003    0.2667 C   0  0  0  0  0  0  0  0  0  0  0  0
   -2.9927    1.2388   -0.4703 C   0  0  0  0  0  0  0  0  0  0  0  0
   -3.8696   -2.4873   -0.0492 C   0  0  0  0  0  0  0  0  0  0  0  0
    3.6902   -0.4390   -0.0293 C   0  0  0  0  0  0  0  0  0  0  0  0
    4.7534   -0.3004   -1.0763 C   0  0  0  0  0  0  0  0  0  0  0  0
    0.6685    2.0462   -0.2599 H   0  0  0  0  0  0  0  0  0  0  0  0
    0.0588    0.6146   -1.0566 H   0  0  0  0  0  0  0  0  0  0  0  0
   -1.1669   -0.0027    1.1134 H   0  0  0  0  0  0  0  0  0  0  0  0
   -0.6074    1.4935    1.8170 H   0  0  0  0  0  0  0  0  0  0  0  0
   -3.5521   -0.3355   -1.7725 H   0  0  0  0  0  0  0  0  0  0  0  0
   -2.0540   -0.6490   -0.9320 H   0  0  0  0  0  0  0  0  0  0  0  0
   -2.0510    2.8656    0.4530 H   0  0  0  0  0  0  0  0  0  0  0  0
    1.7884    0.6201    1.4663 H   0  0  0  0  0  0  0  0  0  0  0  0
    1.1668   -0.8374    0.6414 H   0  0  0  0  0  0  0  0  0  0  0  0
   -4.8535   -0.6200    0.3350 H   0  0  0  0  0  0  0  0  0  0  0  0
   -3.3707   -0.8620    1.2538 H   0  0  0  0  0  0  0  0  0  0  0  0
   -3.7892    1.8719   -0.8516 H   0  0  0  0  0  0  0  0  0  0  0  0
   -4.4333   -3.0226    0.7213 H   0  0  0  0  0  0  0  0  0  0  0  0
   -4.3548   -2.6697   -1.0134 H   0  0  0  0  0  0  0  0  0  0  0  0
   -2.8602   -2.9092   -0.0864 H   0  0  0  0  0  0  0  0  0  0  0  0
    5.0221    0.7523   -1.1943 H   0  0  0  0  0  0  0  0  0  0  0  0
    4.3978   -0.7157   -2.0225 H   0  0  0  0  0  0  0  0  0  0  0  0
    5.6436   -0.8546   -0.7651 H   0  0  0  0  0  0  0  0  0  0  0  0
  1  7  1  0  0  0  0
  1 11  1  0  0  0  0
  2 11  2  0  0  0  0
  3  4  1  0  0  0  0
  3  6  1  0  0  0  0
  3 15  1  0  0  0  0
  3 16  1  0  0  0  0
  4  7  1  0  0  0  0
  4 13  1  0  0  0  0
  4 14  1  0  0  0  0
  5  8  1  0  0  0  0
  5  9  1  0  0  0  0
  5 17  1  0  0  0  0
  5 18  1  0  0  0  0
  6  9  2  0  0  0  0
  6 19  1  0  0  0  0
  7 20  1  0  0  0  0
  7 21  1  0  0  0  0
  8 10  1  0  0  0  0
  8 22  1  0  0  0  0
  8 23  1  0  0  0  0
  9 24  1  0  0  0  0
 10 25  1  0  0  0  0
 10 26  1  0  0  0  0
 10 27  1  0  0  0  0
 11 12  1  0  0  0  0
 12 28  1  0  0  0  0
 12 29  1  0  0  0  0
 12 30  1  0  0  0  0
M  END
> <PUBCHEM_COMPOUND_CID>
5352819

> <PUBCHEM_CONFORMER_RMSD>
0.8

> <PUBCHEM_CONFORMER_DIVERSEORDER>
1
250
66
151
120
149
170
37
116
16
254
88
8
5
124
147
22
260
67
223
100
141
184
126
92
52
195
142
4
10
241
51
101
59
23
96
47
211
109
152
255
138
198
95
99
177
191
139
73
153
251
196
174
91
25
3
201
53
7
207
11
112
156
187
12
157
111
17
210
134
205
167
39
206
228
115
193
218
104
58
83
44
71
238
102
81
127
248
165
87
130
55
240
31
194
108
183
229
217
143
69
258
129
62
80
36
131
236
262
45
42
98
56
63
182
28
105
230
168
140
256
9
79
160
133
148
247
186
60
146
128
166
90
84
246
122
171
2
215
162
35
77
119
253
93
233
61
235
214
203
85
216
249
163
150
94
117
185
70
189
89
26
27
21
106
110
199
107
212
32
75
34
158
242
145
6
118
132
154
29
50
202
24
144
20
114
13
48
204
190
97
232
136
82
179
178
180
30
244
43
192
38
155
224
227
18
231
222
181
243
237
68
219
200
188
72
159
78
64
164
176
14
208
40
259
74
125
46
245
113
19
49
54
209
197
234
76
123
161
226
103
239
65
41
225
169
137
173
172
220
121
135
15
213
261
33
57
264
257
221
86
263
252
175

> <PUBCHEM_MMFF94_PARTIAL_CHARGES>
11
1 -0.43
11 0.66
12 0.06
19 0.15
2 -0.57
24 0.15
3 0.14
5 0.14
6 -0.29
7 0.28
9 -0.29

> <PUBCHEM_EFFECTIVE_ROTOR_COUNT>
7

> <PUBCHEM_PHARMACOPHORE_FEATURES>
2
1 10 hydrophobe
1 2 acceptor

> <PUBCHEM_HEAVY_ATOM_COUNT>
12

> <PUBCHEM_ATOM_DEF_STEREO_COUNT>
0

> <PUBCHEM_ATOM_UDEF_STEREO_COUNT>
0

> <PUBCHEM_BOND_DEF_STEREO_COUNT>
1

> <PUBCHEM_BOND_UDEF_STEREO_COUNT>
0

> <PUBCHEM_ISOTOPIC_ATOM_COUNT>
0

> <PUBCHEM_COMPONENT_COUNT>
1

> <PUBCHEM_CACTVS_TAUTO_COUNT>
1

> <PUBCHEM_CONFORMER_ID>
0051AD7300000001

> <PUBCHEM_MMFF94_ENERGY>
5.0448

> <PUBCHEM_FEATURE_SELFOVERLAP>
10.148

> <PUBCHEM_SHAPE_FINGERPRINT>
11127187 94 18334283289317674375
11543360 7 18113058242257395004
12757275 245 18410857663821008991
14123255 352 11025802019931445214
14123260 362 8862945000167186771
14251710 61 18343586269352121703
14251718 22 18411143554467237852
14251731 5 18123189262924228835
14251732 14 18128842857308648428
14251758 9 8934736461342332212
14576447 43 18187365462950365422
17834072 32 8935008087626970495
17834072 33 18333456456531583748
18915474 69 18260830388858811750
19107657 162 18130787845548110670
19782 4 11025787726000566143
201361 129 11312064240020115628
20281475 54 18337391535268901024
20432913 95 16200430247758671932
20621476 21 17774741800283600582
20871999 31 18040990744309608869
21054139 6 18259704519523623018
21061003 4 16773793705998340377
22485316 2 18261951856322637464
23402539 116 16660641826233253484
23402655 69 17531525369647694204
23403322 49 18411133662888711463
23557571 272 17845380938153598148
27216 239 10159700222637540895
328317 168 8862675573169892483
4028521 119 12324235075001042375
4416823 128 18340205318963823379
53428517 29 9583515408654787152
53428517 46 18341894073817777201
58051976 100 18410292475984203741
59345606 119 18413387631291499094
59345606 45 18040441013627123597

> <PUBCHEM_SHAPE_MULTIPOLES>
235.22
9.89
1.94
0.95
7.21
0.62
0.02
5.35
1.58
-2.81
-0.16
0.44
0.02
-0.04

> <PUBCHEM_SHAPE_SELFOVERLAP>
432.033

> <PUBCHEM_SHAPE_VOLUME>
148.7

> <PUBCHEM_COORDINATE_TYPE>
2
5
10

$$$$
