5352799
  -OEChem-11232108593D

 30 29  0     0  0  0  0  0  0999 V2000
   -3.3091    0.5144    0.0676 O   0  0  0  0  0  0  0  0  0  0  0  0
   -2.4709   -1.6191   -0.1875 O   0  0  0  0  0  0  0  0  0  0  0  0
    3.8081    0.6929   -0.1206 C   0  0  0  0  0  0  0  0  0  0  0  0
    0.1871   -0.7326    0.2739 C   0  0  0  0  0  0  0  0  0  0  0  0
    4.9969   -0.2650   -0.2346 C   0  0  0  0  0  0  0  0  0  0  0  0
   -0.9882    0.2454    0.3005 C   0  0  0  0  0  0  0  0  0  0  0  0
    2.4921    0.0173   -0.3751 C   0  0  0  0  0  0  0  0  0  0  0  0
    1.4992   -0.0443    0.5244 C   0  0  0  0  0  0  0  0  0  0  0  0
    6.3367    0.4051    0.0381 C   0  0  0  0  0  0  0  0  0  0  0  0
   -2.3197   -0.4263    0.0396 C   0  0  0  0  0  0  0  0  0  0  0  0
   -4.6288    0.0279   -0.1968 C   0  0  0  0  0  0  0  0  0  0  0  0
   -5.6034    1.1844   -0.1295 C   0  0  0  0  0  0  0  0  0  0  0  0
    3.9244    1.5039   -0.8499 H   0  0  0  0  0  0  0  0  0  0  0  0
    3.8153    1.1612    0.8715 H   0  0  0  0  0  0  0  0  0  0  0  0
    0.0454   -1.5024    1.0427 H   0  0  0  0  0  0  0  0  0  0  0  0
    0.2037   -1.2606   -0.6880 H   0  0  0  0  0  0  0  0  0  0  0  0
    5.0204   -0.7057   -1.2390 H   0  0  0  0  0  0  0  0  0  0  0  0
    4.8689   -1.0951    0.4714 H   0  0  0  0  0  0  0  0  0  0  0  0
   -0.8441    1.0154   -0.4669 H   0  0  0  0  0  0  0  0  0  0  0  0
   -1.0427    0.7324    1.2814 H   0  0  0  0  0  0  0  0  0  0  0  0
    2.3564   -0.4371   -1.3534 H   0  0  0  0  0  0  0  0  0  0  0  0
    1.6332    0.4107    1.5027 H   0  0  0  0  0  0  0  0  0  0  0  0
    7.1508   -0.3200   -0.0572 H   0  0  0  0  0  0  0  0  0  0  0  0
    6.5178    1.2175   -0.6727 H   0  0  0  0  0  0  0  0  0  0  0  0
    6.3661    0.8205    1.0504 H   0  0  0  0  0  0  0  0  0  0  0  0
   -4.6586   -0.4235   -1.1948 H   0  0  0  0  0  0  0  0  0  0  0  0
   -4.8970   -0.7260    0.5518 H   0  0  0  0  0  0  0  0  0  0  0  0
   -6.6247    0.8473   -0.3272 H   0  0  0  0  0  0  0  0  0  0  0  0
   -5.5720    1.6578    0.8574 H   0  0  0  0  0  0  0  0  0  0  0  0
   -5.3376    1.9553   -0.8604 H   0  0  0  0  0  0  0  0  0  0  0  0
  1 10  1  0  0  0  0
  1 11  1  0  0  0  0
  2 10  2  0  0  0  0
  3  5  1  0  0  0  0
  3  7  1  0  0  0  0
  3 13  1  0  0  0  0
  3 14  1  0  0  0  0
  4  6  1  0  0  0  0
  4  8  1  0  0  0  0
  4 15  1  0  0  0  0
  4 16  1  0  0  0  0
  5  9  1  0  0  0  0
  5 17  1  0  0  0  0
  5 18  1  0  0  0  0
  6 10  1  0  0  0  0
  6 19  1  0  0  0  0
  6 20  1  0  0  0  0
  7  8  2  0  0  0  0
  7 21  1  0  0  0  0
  8 22  1  0  0  0  0
  9 23  1  0  0  0  0
  9 24  1  0  0  0  0
  9 25  1  0  0  0  0
 11 12  1  0  0  0  0
 11 26  1  0  0  0  0
 11 27  1  0  0  0  0
 12 28  1  0  0  0  0
 12 29  1  0  0  0  0
 12 30  1  0  0  0  0
M  END
> <PUBCHEM_COMPOUND_CID>
5352799

> <PUBCHEM_CONFORMER_RMSD>
0.8

> <PUBCHEM_CONFORMER_DIVERSEORDER>
4
41
78
89
20
64
65
2
23
92
45
56
14
12
112
42
66
106
36
39
40
37
13
6
82
15
113
3
18
103
109
69
75
68
28
29
16
34
30
1
11
19
35
61
17
80
24
8
44
9
105
21
32
54
59
76
46
100
104
62
85
63
81
88
71
95
50
87
7
98
74
33
102
51
77
27
99
57
10
49
73
107
110
83
114
91
60
72
22
52
108
31
48
67
101
38
111
96
25
94
53
26
70
90
47
97
79
58
84
86
93
55
5
43

> <PUBCHEM_MMFF94_PARTIAL_CHARGES>
11
1 -0.43
10 0.66
11 0.28
2 -0.57
21 0.15
22 0.15
3 0.14
4 0.14
6 0.06
7 -0.29
8 -0.29

> <PUBCHEM_EFFECTIVE_ROTOR_COUNT>
7

> <PUBCHEM_PHARMACOPHORE_FEATURES>
2
1 2 acceptor
1 9 hydrophobe

> <PUBCHEM_HEAVY_ATOM_COUNT>
12

> <PUBCHEM_ATOM_DEF_STEREO_COUNT>
0

> <PUBCHEM_ATOM_UDEF_STEREO_COUNT>
0

> <PUBCHEM_BOND_DEF_STEREO_COUNT>
1

> <PUBCHEM_BOND_UDEF_STEREO_COUNT>
0

> <PUBCHEM_ISOTOPIC_ATOM_COUNT>
0

> <PUBCHEM_COMPONENT_COUNT>
1

> <PUBCHEM_CACTVS_TAUTO_COUNT>
1

> <PUBCHEM_CONFORMER_ID>
0051AD5F00000004

> <PUBCHEM_MMFF94_ENERGY>
1.5039

> <PUBCHEM_FEATURE_SELFOVERLAP>
10.148

> <PUBCHEM_SHAPE_FINGERPRINT>
100836 57 17967537865161838036
10354089 29 16443066093078624292
11401426 45 18413388752588998370
114248 4 16917349233733121564
11858739 19 17917716760657757790
12714333 28 18202845448307913256
12815109 37 17203609285411855584
14251718 22 11383831567309320096
15048467 5 18408040697618883493
15242439 84 17988924487582728714
15501527 16 18408042892700580101
17834072 33 10879983675395783570
17834072 8 18343588430348321878
17834076 25 16950282909915116184
187816 3 16988846076841046323
200 152 15052016753573529611
20279233 1 17131841979396787142
20281389 69 18113052718581526613
20621476 66 18333454239737894420
20645477 56 18408039606929026093
20645477 70 16701468857836495750
20724930 69 18259704497193796115
20767249 13 14333411142705902676
20767249 213 18259985976750349613
21119208 17 18413390942653106112
212847 35 18040720290319420900
22485316 2 18060419131846856206
23218964 4 18409166593546958082
23402539 116 18412541037640129862
23402655 69 18413669101867617574
300161 21 18412821391751831738
3545911 37 18408887330072346435
366044 4 18261111885268479394
42 15 8862946077966406281
42788 4 18408604768743157988

> <PUBCHEM_SHAPE_MULTIPOLES>
235.22
14.53
1.03
0.67
5.26
0.14
-0.01
-4.29
1.27
-0.87
0.04
0.1
0
0

> <PUBCHEM_SHAPE_SELFOVERLAP>
430.201

> <PUBCHEM_SHAPE_VOLUME>
149.7

> <PUBCHEM_COORDINATE_TYPE>
2
5
10

$$$$
