5352435
  -OEChem-11232109183D

 36 35  0     0  0  0  0  0  0999 V2000
   -3.5206   -0.5515    0.9509 O   0  0  0  0  0  0  0  0  0  0  0  0
   -3.1981    1.5342   -0.1052 O   0  0  0  0  0  0  0  0  0  0  0  0
    0.9616   -0.9665    0.2722 C   0  0  0  0  0  0  0  0  0  0  0  0
    1.9043   -0.3698   -0.7809 C   0  0  0  0  0  0  0  0  0  0  0  0
   -0.4997   -0.9196   -0.1220 C   0  0  0  0  0  0  0  0  0  0  0  0
   -1.3625    0.0530    0.2332 C   0  0  0  0  0  0  0  0  0  0  0  0
    3.3552   -0.5510   -0.4298 C   0  0  0  0  0  0  0  0  0  0  0  0
   -0.9784   -2.0876   -0.9457 C   0  0  0  0  0  0  0  0  0  0  0  0
   -2.8279    0.1509   -0.0922 C   0  0  0  0  0  0  0  0  0  0  0  0
    4.1754    0.3197    0.1882 C   0  0  0  0  0  0  0  0  0  0  0  0
    5.6144   -0.0416    0.4449 C   0  0  0  0  0  0  0  0  0  0  0  0
    3.7806    1.6797    0.6886 C   0  0  0  0  0  0  0  0  0  0  0  0
   -4.9305   -0.5381    0.7672 C   0  0  0  0  0  0  0  0  0  0  0  0
   -2.4739    2.2882   -1.0693 C   0  0  0  0  0  0  0  0  0  0  0  0
    1.0956   -0.4198    1.2157 H   0  0  0  0  0  0  0  0  0  0  0  0
    1.2455   -2.0033    0.4945 H   0  0  0  0  0  0  0  0  0  0  0  0
    1.6675    0.6887   -0.9388 H   0  0  0  0  0  0  0  0  0  0  0  0
    1.7337   -0.8539   -1.7511 H   0  0  0  0  0  0  0  0  0  0  0  0
   -0.9700    0.8378    0.8800 H   0  0  0  0  0  0  0  0  0  0  0  0
    3.7634   -1.5174   -0.7239 H   0  0  0  0  0  0  0  0  0  0  0  0
   -3.0772   -0.2885   -1.0643 H   0  0  0  0  0  0  0  0  0  0  0  0
   -2.0632   -2.1528   -1.0524 H   0  0  0  0  0  0  0  0  0  0  0  0
   -0.5429   -2.0418   -1.9491 H   0  0  0  0  0  0  0  0  0  0  0  0
   -0.6618   -3.0277   -0.4800 H   0  0  0  0  0  0  0  0  0  0  0  0
    5.8697   -1.0368    0.0658 H   0  0  0  0  0  0  0  0  0  0  0  0
    6.2782    0.6793   -0.0435 H   0  0  0  0  0  0  0  0  0  0  0  0
    5.8218   -0.0329    1.5200 H   0  0  0  0  0  0  0  0  0  0  0  0
    4.0129    1.7715    1.7549 H   0  0  0  0  0  0  0  0  0  0  0  0
    2.7133    1.8855    0.5745 H   0  0  0  0  0  0  0  0  0  0  0  0
    4.3313    2.4557    0.1470 H   0  0  0  0  0  0  0  0  0  0  0  0
   -5.1964   -0.9732   -0.2010 H   0  0  0  0  0  0  0  0  0  0  0  0
   -5.3231    0.4798    0.8455 H   0  0  0  0  0  0  0  0  0  0  0  0
   -5.3838   -1.1436    1.5568 H   0  0  0  0  0  0  0  0  0  0  0  0
   -1.4444    2.4706   -0.7486 H   0  0  0  0  0  0  0  0  0  0  0  0
   -2.9638    3.2612   -1.1687 H   0  0  0  0  0  0  0  0  0  0  0  0
   -2.4902    1.7976   -2.0478 H   0  0  0  0  0  0  0  0  0  0  0  0
  1  9  1  0  0  0  0
  1 13  1  0  0  0  0
  2  9  1  0  0  0  0
  2 14  1  0  0  0  0
  3  4  1  0  0  0  0
  3  5  1  0  0  0  0
  3 15  1  0  0  0  0
  3 16  1  0  0  0  0
  4  7  1  0  0  0  0
  4 17  1  0  0  0  0
  4 18  1  0  0  0  0
  5  6  2  0  0  0  0
  5  8  1  0  0  0  0
  6  9  1  0  0  0  0
  6 19  1  0  0  0  0
  7 10  2  0  0  0  0
  7 20  1  0  0  0  0
  8 22  1  0  0  0  0
  8 23  1  0  0  0  0
  8 24  1  0  0  0  0
  9 21  1  0  0  0  0
 10 11  1  0  0  0  0
 10 12  1  0  0  0  0
 11 25  1  0  0  0  0
 11 26  1  0  0  0  0
 11 27  1  0  0  0  0
 12 28  1  0  0  0  0
 12 29  1  0  0  0  0
 12 30  1  0  0  0  0
 13 31  1  0  0  0  0
 13 32  1  0  0  0  0
 13 33  1  0  0  0  0
 14 34  1  0  0  0  0
 14 35  1  0  0  0  0
 14 36  1  0  0  0  0
M  END
> <PUBCHEM_COMPOUND_CID>
5352435

> <PUBCHEM_CONFORMER_RMSD>
0.6

> <PUBCHEM_CONFORMER_DIVERSEORDER>
11
326
117
71
331
302
111
340
91
330
275
322
101
206
170
300
231
189
299
193
166
306
219
317
51
223
155
228
152
1
267
204
134
341
12
364
308
146
305
329
236
209
250
214
112
119
203
304
109
358
163
208
157
192
280
298
54
148
97
224
69
177
320
76
140
164
65
334
319
144
255
122
185
363
74
46
172
173
238
205
253
279
57
295
351
262
365
168
110
123
165
25
50
290
128
362
196
226
39
284
88
21
349
199
313
162
367
4
220
38
43
311
9
325
366
287
332
24
120
309
221
194
324
273
191
84
59
345
78
100
90
296
178
137
179
348
60
312
314
7
210
246
347
169
131
102
42
369
133
145
86
285
318
344
36
286
149
73
64
277
343
93
127
251
22
301
222
72
353
278
47
114
356
174
288
121
175
35
143
8
106
19
230
29
274
184
337
81
213
225
103
87
264
207
198
105
79
215
75
293
45
294
217
281
190
183
63
23
98
188
245
233
216
159
161
354
49
55
186
82
266
352
234
248
77
272
53
229
48
2
176
5
254
247
44
200
130
339
232
187
158
242
62
10
95
56
66
32
256
115
291
141
16
346
6
252
138
85
26
70
265
27
182
136
259
108
239
328
67
41
180
261
18
227
310
327
17
218
15
33
150
235
89
350
335
80
116
270
263
135
14
297
181
40
368
52
201
359
139
244
361
132
126
307
355
104
315
96
333
83
142
276
240
124
151
336
212
154
211
58
107
125
292
316
68
195
283
160
282
342
360
357
197
268
147
257
271
260
92
237
243
20
167
338
171
153
303
37
289
129
31
241
13
321
30
113
258
202
156
323
28
99
3
34
118
94
269
61
249

> <PUBCHEM_MMFF94_PARTIAL_CHARGES>
16
1 -0.56
10 -0.28
11 0.14
12 0.14
13 0.28
14 0.28
19 0.15
2 -0.56
20 0.15
3 0.14
4 0.14
5 -0.28
6 -0.29
7 -0.29
8 0.14
9 0.7

> <PUBCHEM_EFFECTIVE_ROTOR_COUNT>
6

> <PUBCHEM_PHARMACOPHORE_FEATURES>
5
1 1 acceptor
1 2 acceptor
1 8 hydrophobe
3 10 11 12 hydrophobe
4 3 4 5 7 hydrophobe

> <PUBCHEM_HEAVY_ATOM_COUNT>
14

> <PUBCHEM_ATOM_DEF_STEREO_COUNT>
0

> <PUBCHEM_ATOM_UDEF_STEREO_COUNT>
0

> <PUBCHEM_BOND_DEF_STEREO_COUNT>
1

> <PUBCHEM_BOND_UDEF_STEREO_COUNT>
0

> <PUBCHEM_ISOTOPIC_ATOM_COUNT>
0

> <PUBCHEM_COMPONENT_COUNT>
1

> <PUBCHEM_CACTVS_TAUTO_COUNT>
1

> <PUBCHEM_CONFORMER_ID>
0051ABF30000000B

> <PUBCHEM_MMFF94_ENERGY>
25.1108

> <PUBCHEM_FEATURE_SELFOVERLAP>
25.413

> <PUBCHEM_SHAPE_FINGERPRINT>
11543360 7 12751226035029077866
124424 183 10665234760977262395
12507560 40 18262801761462377062
12596602 18 16732984262613327080
13081056 2 18412829092422393616
13675066 3 18333732408022167326
14123255 352 18408878525932994652
14123255 52 18411976940830518814
15242433 33 11815902240660782348
15501527 16 18201719583050803560
17802600 8 18408040727557099581
18186145 218 17917999343303364502
19433438 28 18334856121627106736
20281407 28 11530486635872248502
20432913 95 14056998313255808744
20645477 56 18272370897284922534
20645477 70 17131845222746299894
20681677 155 11959730460465062183
21524375 3 18411703179419983894
21652331 79 18409166649081222888
22182937 141 18196658384852485553
22224240 67 18130797776383482963
23402539 116 18186518830671008319
23402655 69 14548744967145779698
23403322 49 8574710200077905745
23557571 272 18116732741582231087
351380 180 18333449850186151480
3524813 1 18411973659375615736
3545911 37 18060142050874857862
4047638 21 17989495125733623830
449060 50 18202004335003320966
4921388 177 14476669858041522805
5104073 3 18190186685301675251
548570 60 18341045238146513092
633830 44 17202215022815615391
6430166 295 18411694371011323696
69090 78 18201719578244536206

> <PUBCHEM_SHAPE_MULTIPOLES>
276.37
10.76
1.87
0.97
5.84
0.66
-0.07
2.14
2.94
-1.03
-0.56
-0.38
0.04
0.97

> <PUBCHEM_SHAPE_SELFOVERLAP>
513.568

> <PUBCHEM_SHAPE_VOLUME>
174.8

> <PUBCHEM_COORDINATE_TYPE>
2
5
10

$$$$
