5352428
  -OEChem-11232109123D

 34 34  0     1  0  0  0  0  0999 V2000
    2.6524    0.2762   -0.5599 O   0  0  0  0  0  0  0  0  0  0  0  0
    2.8163   -1.7055   -1.7028 O   0  0  0  0  0  0  0  0  0  0  0  0
    2.4404    0.6648    0.8056 C   0  0  2  0  0  0  0  0  0  0  0  0
    2.8948   -0.5315    1.6141 C   0  0  0  0  0  0  0  0  0  0  0  0
    0.9723    1.0126    1.0066 C   0  0  0  0  0  0  0  0  0  0  0  0
    2.5887   -1.7004    0.7077 C   0  0  0  0  0  0  0  0  0  0  0  0
    2.7117   -1.0873   -0.6548 C   0  0  0  0  0  0  0  0  0  0  0  0
   -2.5226    0.7963   -0.1202 C   0  0  0  0  0  0  0  0  0  0  0  0
   -1.2657    0.7844   -0.9927 C   0  0  0  0  0  0  0  0  0  0  0  0
    0.5463    2.1301    0.1011 C   0  0  0  0  0  0  0  0  0  0  0  0
   -3.3367   -0.4864   -0.3016 C   0  0  0  0  0  0  0  0  0  0  0  0
   -0.4510    2.0286   -0.7900 C   0  0  0  0  0  0  0  0  0  0  0  0
   -4.6093   -0.4616    0.5446 C   0  0  0  0  0  0  0  0  0  0  0  0
   -5.4375   -1.7204    0.3421 C   0  0  0  0  0  0  0  0  0  0  0  0
    3.0732    1.5335    1.0218 H   0  0  0  0  0  0  0  0  0  0  0  0
    3.9802   -0.4752    1.7671 H   0  0  0  0  0  0  0  0  0  0  0  0
    2.4250   -0.6095    2.5987 H   0  0  0  0  0  0  0  0  0  0  0  0
    0.8264    1.3466    2.0419 H   0  0  0  0  0  0  0  0  0  0  0  0
    0.3542    0.1188    0.8982 H   0  0  0  0  0  0  0  0  0  0  0  0
    3.3099   -2.5099    0.8411 H   0  0  0  0  0  0  0  0  0  0  0  0
    1.5678   -2.0676    0.8449 H   0  0  0  0  0  0  0  0  0  0  0  0
   -3.1421    1.6653   -0.3761 H   0  0  0  0  0  0  0  0  0  0  0  0
   -2.2453    0.9006    0.9364 H   0  0  0  0  0  0  0  0  0  0  0  0
   -1.5620    0.7510   -2.0494 H   0  0  0  0  0  0  0  0  0  0  0  0
   -0.6835   -0.1292   -0.8378 H   0  0  0  0  0  0  0  0  0  0  0  0
    1.0707    3.0779    0.1914 H   0  0  0  0  0  0  0  0  0  0  0  0
   -3.6020   -0.6050   -1.3592 H   0  0  0  0  0  0  0  0  0  0  0  0
   -2.7255   -1.3533   -0.0223 H   0  0  0  0  0  0  0  0  0  0  0  0
   -0.7066    2.8971   -1.3913 H   0  0  0  0  0  0  0  0  0  0  0  0
   -5.2158    0.4125    0.2804 H   0  0  0  0  0  0  0  0  0  0  0  0
   -4.3491   -0.3675    1.6053 H   0  0  0  0  0  0  0  0  0  0  0  0
   -4.8706   -2.6128    0.6263 H   0  0  0  0  0  0  0  0  0  0  0  0
   -5.7426   -1.8254   -0.7040 H   0  0  0  0  0  0  0  0  0  0  0  0
   -6.3419   -1.6821    0.9574 H   0  0  0  0  0  0  0  0  0  0  0  0
  1  3  1  0  0  0  0
  1  7  1  0  0  0  0
  2  7  2  0  0  0  0
  3  4  1  0  0  0  0
  3  5  1  0  0  0  0
  3 15  1  0  0  0  0
  4  6  1  0  0  0  0
  4 16  1  0  0  0  0
  4 17  1  0  0  0  0
  5 10  1  0  0  0  0
  5 18  1  0  0  0  0
  5 19  1  0  0  0  0
  6  7  1  0  0  0  0
  6 20  1  0  0  0  0
  6 21  1  0  0  0  0
  8  9  1  0  0  0  0
  8 11  1  0  0  0  0
  8 22  1  0  0  0  0
  8 23  1  0  0  0  0
  9 12  1  0  0  0  0
  9 24  1  0  0  0  0
  9 25  1  0  0  0  0
 10 12  2  0  0  0  0
 10 26  1  0  0  0  0
 11 13  1  0  0  0  0
 11 27  1  0  0  0  0
 11 28  1  0  0  0  0
 12 29  1  0  0  0  0
 13 14  1  0  0  0  0
 13 30  1  0  0  0  0
 13 31  1  0  0  0  0
 14 32  1  0  0  0  0
 14 33  1  0  0  0  0
 14 34  1  0  0  0  0
M  END
> <PUBCHEM_COMPOUND_CID>
5352428

> <PUBCHEM_CONFORMER_RMSD>
0.8

> <PUBCHEM_CONFORMER_DIVERSEORDER>
2
30
93
46
84
10
149
96
56
176
127
225
137
68
114
6
19
28
29
75
169
211
94
164
33
183
135
3
79
35
216
64
34
168
159
223
15
172
21
197
31
14
4
86
11
136
20
41
162
50
195
198
38
76
67
181
157
139
227
188
17
108
74
192
13
126
40
49
187
24
104
69
193
43
45
166
48
101
107
201
95
81
179
140
44
105
218
63
143
186
12
122
87
82
213
25
132
7
152
222
177
194
27
70
55
128
161
205
54
58
208
16
8
182
39
226
22
144
72
77
98
121
173
65
109
155
9
26
189
203
196
175
200
91
115
117
18
130
1
125
89
5
131
190
167
37
100
163
215
60
217
158
219
88
151
170
57
212
199
85
110
145
142
207
150
32
123
42
165
134
90
103
214
146
78
133
204
53
210
206
171
160
23
180
113
147
220
228
73
153
61
102
116
141
124
202
99
80
112
111
51
106
185
120
62
229
224
138
97
52
66
148
47
59
83
36
92
118
191
71
184
209
156
178
119
129
174
154
221

> <PUBCHEM_MMFF94_PARTIAL_CHARGES>
11
1 -0.43
10 -0.29
12 -0.29
2 -0.57
26 0.15
29 0.15
3 0.28
5 0.14
6 0.06
7 0.66
9 0.14

> <PUBCHEM_EFFECTIVE_ROTOR_COUNT>
6.8

> <PUBCHEM_PHARMACOPHORE_FEATURES>
4
1 14 hydrophobe
1 2 acceptor
5 1 3 4 6 7 rings
5 8 9 11 12 13 hydrophobe

> <PUBCHEM_HEAVY_ATOM_COUNT>
14

> <PUBCHEM_ATOM_DEF_STEREO_COUNT>
0

> <PUBCHEM_ATOM_UDEF_STEREO_COUNT>
1

> <PUBCHEM_BOND_DEF_STEREO_COUNT>
1

> <PUBCHEM_BOND_UDEF_STEREO_COUNT>
0

> <PUBCHEM_ISOTOPIC_ATOM_COUNT>
0

> <PUBCHEM_COMPONENT_COUNT>
1

> <PUBCHEM_CACTVS_TAUTO_COUNT>
2

> <PUBCHEM_CONFORMER_ID>
0051ABEC00000002

> <PUBCHEM_MMFF94_ENERGY>
5.9739

> <PUBCHEM_FEATURE_SELFOVERLAP>
20.297

> <PUBCHEM_SHAPE_FINGERPRINT>
10064457 181 16916777539342752886
11067466 332 18410852179327152620
11140007 195 17632027346833921877
11543360 7 14129062530265039513
12006461 19 18410577297119895161
122479 349 11383826095700657941
12596599 1 18341900636844427643
12892183 10 17346598573623184297
13255334 9 18043817704853841627
13464513 79 18411139173015098190
13533116 47 18196938980051263059
14251710 61 18411704279347933735
14251731 5 18337671906217886163
14251740 57 18129954510815011007
14251758 9 18334866000869428697
14251764 30 16915404133624524326
14252887 29 18343018908430357792
14366163 111 12324230673266121543
15342816 4 18040714762094753657
15422964 175 18271803454436864100
1798214 55 10231755600198102299
18186145 218 10953744348425811381
19766037 51 17749115495590925993
19782 4 9799687078514485631
20281475 54 18186800253870663041
20388580 30 17894635885239023645
20397935 70 18272094963354366559
20442098 301 18130779105421597175
20645477 70 18189049970872869909
20671657 53 17822285816987355885
20767249 462 10663814200301231587
20871998 22 18408880737440322661
21354914 76 18408884062087446483
23466295 7 15975014743358994062
23590187 173 9367350323222780499
3060560 45 13045931404712326648
43658 37 8142080945007892005
4463277 69 18410569626482293589
5352402 22 18273217504158602535
94968 8 18260831518181931619
960060 61 16877657994238046255

> <PUBCHEM_SHAPE_MULTIPOLES>
276.37
8.82
2.19
1.31
12.88
0.32
0.12
-6.51
-1.18
-0.2
0.23
-1.21
-0.31
0.77

> <PUBCHEM_SHAPE_SELFOVERLAP>
535.499

> <PUBCHEM_SHAPE_VOLUME>
168.6

> <PUBCHEM_COORDINATE_TYPE>
2
5
10

$$$$
