5352450
  -OEChem-11232109273D

 27 26  0     0  0  0  0  0  0999 V2000
    0.2550    0.1459    0.0443 O   0  0  0  0  0  0  0  0  0  0  0  0
   -0.9115   -1.8167    0.3422 O   0  0  0  0  0  0  0  0  0  0  0  0
    2.6402    0.4052   -0.0890 C   0  0  0  0  0  0  0  0  0  0  0  0
    3.9924   -0.3019   -0.0725 C   0  0  0  0  0  0  0  0  0  0  0  0
    1.4902   -0.5768    0.0839 C   0  0  0  0  0  0  0  0  0  0  0  0
    5.1356    0.6767   -0.2886 C   0  0  0  0  0  0  0  0  0  0  0  0
   -2.0721    0.2835    0.1185 C   0  0  0  0  0  0  0  0  0  0  0  0
   -0.8718   -0.6045    0.1869 C   0  0  0  0  0  0  0  0  0  0  0  0
   -1.9486    1.6877    0.6313 C   0  0  0  0  0  0  0  0  0  0  0  0
   -3.1895   -0.2769   -0.3797 C   0  0  0  0  0  0  0  0  0  0  0  0
   -4.5198    0.3778   -0.5774 C   0  0  0  0  0  0  0  0  0  0  0  0
    2.5962    1.1614    0.7048 H   0  0  0  0  0  0  0  0  0  0  0  0
    2.5091    0.9525   -1.0309 H   0  0  0  0  0  0  0  0  0  0  0  0
    4.0229   -1.0665   -0.8575 H   0  0  0  0  0  0  0  0  0  0  0  0
    4.1324   -0.8151    0.8860 H   0  0  0  0  0  0  0  0  0  0  0  0
    1.5009   -1.3167   -0.7252 H   0  0  0  0  0  0  0  0  0  0  0  0
    1.5767   -1.0927    1.0473 H   0  0  0  0  0  0  0  0  0  0  0  0
    5.0427    1.1814   -1.2555 H   0  0  0  0  0  0  0  0  0  0  0  0
    5.1532    1.4389    0.4969 H   0  0  0  0  0  0  0  0  0  0  0  0
    6.0944    0.1492   -0.2716 H   0  0  0  0  0  0  0  0  0  0  0  0
   -2.9148    2.1354    0.8776 H   0  0  0  0  0  0  0  0  0  0  0  0
   -1.3554    1.7075    1.5522 H   0  0  0  0  0  0  0  0  0  0  0  0
   -1.4547    2.3223   -0.1113 H   0  0  0  0  0  0  0  0  0  0  0  0
   -3.1632   -1.3153   -0.7070 H   0  0  0  0  0  0  0  0  0  0  0  0
   -4.8536    0.2211   -1.6082 H   0  0  0  0  0  0  0  0  0  0  0  0
   -4.5065    1.4553   -0.4006 H   0  0  0  0  0  0  0  0  0  0  0  0
   -5.2589   -0.0736    0.0915 H   0  0  0  0  0  0  0  0  0  0  0  0
  1  5  1  0  0  0  0
  1  8  1  0  0  0  0
  2  8  2  0  0  0  0
  3  4  1  0  0  0  0
  3  5  1  0  0  0  0
  3 12  1  0  0  0  0
  3 13  1  0  0  0  0
  4  6  1  0  0  0  0
  4 14  1  0  0  0  0
  4 15  1  0  0  0  0
  5 16  1  0  0  0  0
  5 17  1  0  0  0  0
  6 18  1  0  0  0  0
  6 19  1  0  0  0  0
  6 20  1  0  0  0  0
  7  8  1  0  0  0  0
  7  9  1  0  0  0  0
  7 10  2  0  0  0  0
  9 21  1  0  0  0  0
  9 22  1  0  0  0  0
  9 23  1  0  0  0  0
 10 11  1  0  0  0  0
 10 24  1  0  0  0  0
 11 25  1  0  0  0  0
 11 26  1  0  0  0  0
 11 27  1  0  0  0  0
M  END
> <PUBCHEM_COMPOUND_CID>
5352450

> <PUBCHEM_CONFORMER_RMSD>
0.6

> <PUBCHEM_CONFORMER_DIVERSEORDER>
1
76
51
140
42
96
62
58
57
90
120
133
142
141
157
82
91
63
98
122
23
74
77
129
10
100
69
87
161
19
70
67
72
65
73
34
143
146
150
93
117
2
160
36
103
111
12
49
37
81
144
32
75
41
31
104
136
137
3
108
84
53
16
132
97
38
134
101
64
126
114
25
131
71
123
119
92
46
40
20
43
158
115
164
106
14
138
27
147
135
47
107
116
139
124
83
50
30
80
8
54
22
109
118
79
121
105
56
127
78
24
66
6
45
21
85
61
110
156
44
130
18
15
125
59
95
11
28
33
163
88
26
39
89
68
159
13
35
148
48
155
112
102
7
9
17
5
162
86
4
52
153
154
145
152
29
60
128
55
151
113
149
94
99

> <PUBCHEM_MMFF94_PARTIAL_CHARGES>
9
1 -0.43
10 -0.29
11 0.14
2 -0.57
24 0.15
5 0.28
7 -0.12
8 0.71
9 0.14

> <PUBCHEM_EFFECTIVE_ROTOR_COUNT>
5

> <PUBCHEM_PHARMACOPHORE_FEATURES>
4
1 11 hydrophobe
1 2 acceptor
1 6 hydrophobe
1 9 hydrophobe

> <PUBCHEM_HEAVY_ATOM_COUNT>
11

> <PUBCHEM_ATOM_DEF_STEREO_COUNT>
0

> <PUBCHEM_ATOM_UDEF_STEREO_COUNT>
0

> <PUBCHEM_BOND_DEF_STEREO_COUNT>
1

> <PUBCHEM_BOND_UDEF_STEREO_COUNT>
0

> <PUBCHEM_ISOTOPIC_ATOM_COUNT>
0

> <PUBCHEM_COMPONENT_COUNT>
1

> <PUBCHEM_CACTVS_TAUTO_COUNT>
1

> <PUBCHEM_CONFORMER_ID>
0051AC0200000001

> <PUBCHEM_MMFF94_ENERGY>
9.6183

> <PUBCHEM_FEATURE_SELFOVERLAP>
20.298

> <PUBCHEM_SHAPE_FINGERPRINT>
10014705 185 18041278867626622820
11062470 55 16515683338134014237
114248 4 17561081419207662868
12932764 1 16558453206630750070
13380535 76 18410576175864925094
14123238 8 17060337431355040044
14325111 11 18340207384257504410
14897335 6 18334856108689639026
14993402 34 18260545623625935565
15501527 24 18341887515650571437
187816 3 18342454850839428625
190213 19 17603873299474873424
200 152 16415479354579349975
20279233 1 18060147548390818430
20300324 65 18060700585021676161
20645477 56 18334577970960214820
20645477 70 17131563735037310886
20767249 213 17603304873042673500
20828058 44 11530485540829849584
21119208 17 17561360686291621693
21293036 1 18411696582486906031
23048698 100 17749104466062051984
23402539 116 18343013402477333399
23402655 69 18271802380890335885
366044 4 18334574646492348267
42 15 9367348145452691964
42788 4 18260828202541032100

> <PUBCHEM_SHAPE_MULTIPOLES>
214.64
9.38
1.26
0.71
7.03
0.02
-0.01
2.05
-2.05
-0.51
0.24
-0.21
0.06
-0.21

> <PUBCHEM_SHAPE_SELFOVERLAP>
397.874

> <PUBCHEM_SHAPE_VOLUME>
135.7

> <PUBCHEM_COORDINATE_TYPE>
2
5
10

$$$$
