5353011
  -OEChem-11232109113D

 41 41  0     0  0  0  0  0  0999 V2000
   -0.8057    1.9640   -0.2236 O   0  0  0  0  0  0  0  0  0  0  0  0
   -0.4633    0.5714    1.5771 O   0  0  0  0  0  0  0  0  0  0  0  0
    3.7601    0.8435   -0.9624 C   0  0  0  0  0  0  0  0  0  0  0  0
    4.0085   -0.6352   -0.6370 C   0  0  0  0  0  0  0  0  0  0  0  0
    2.6466    1.4687   -0.1484 C   0  0  0  0  0  0  0  0  0  0  0  0
    2.7944   -1.4907   -0.8720 C   0  0  0  0  0  0  0  0  0  0  0  0
    1.5217    2.0015   -0.6641 C   0  0  0  0  0  0  0  0  0  0  0  0
    2.8813    1.4996    1.3403 C   0  0  0  0  0  0  0  0  0  0  0  0
    2.1867   -2.3264   -0.0087 C   0  0  0  0  0  0  0  0  0  0  0  0
    0.3973    2.6626    0.0677 C   0  0  0  0  0  0  0  0  0  0  0  0
    0.9751   -3.1115   -0.4361 C   0  0  0  0  0  0  0  0  0  0  0  0
    2.6038   -2.5592    1.4154 C   0  0  0  0  0  0  0  0  0  0  0  0
   -2.3909    0.2909    0.2022 C   0  0  0  0  0  0  0  0  0  0  0  0
   -1.1187    0.9364    0.6135 C   0  0  0  0  0  0  0  0  0  0  0  0
   -3.1866   -0.2904    1.1683 C   0  0  0  0  0  0  0  0  0  0  0  0
   -2.7386    0.2928   -1.1332 C   0  0  0  0  0  0  0  0  0  0  0  0
   -4.3819   -0.8966    0.7820 C   0  0  0  0  0  0  0  0  0  0  0  0
   -3.9341   -0.3134   -1.5193 C   0  0  0  0  0  0  0  0  0  0  0  0
   -4.7557   -0.9081   -0.5617 C   0  0  0  0  0  0  0  0  0  0  0  0
    4.6850    1.4092   -0.7936 H   0  0  0  0  0  0  0  0  0  0  0  0
    3.5385    0.9420   -2.0334 H   0  0  0  0  0  0  0  0  0  0  0  0
    4.3950   -0.7238    0.3813 H   0  0  0  0  0  0  0  0  0  0  0  0
    4.8078   -1.0013   -1.2936 H   0  0  0  0  0  0  0  0  0  0  0  0
    2.3900   -1.4212   -1.8816 H   0  0  0  0  0  0  0  0  0  0  0  0
    1.4016    1.9670   -1.7462 H   0  0  0  0  0  0  0  0  0  0  0  0
    3.9550    1.5472    1.5557 H   0  0  0  0  0  0  0  0  0  0  0  0
    2.4843    0.5947    1.8099 H   0  0  0  0  0  0  0  0  0  0  0  0
    2.4487    2.3749    1.8306 H   0  0  0  0  0  0  0  0  0  0  0  0
    0.2813    3.6807   -0.3201 H   0  0  0  0  0  0  0  0  0  0  0  0
    0.5365    2.7634    1.1467 H   0  0  0  0  0  0  0  0  0  0  0  0
    0.1161   -2.8531    0.1920 H   0  0  0  0  0  0  0  0  0  0  0  0
    0.6950   -2.9151   -1.4764 H   0  0  0  0  0  0  0  0  0  0  0  0
    1.1661   -4.1854   -0.3410 H   0  0  0  0  0  0  0  0  0  0  0  0
    2.8232   -3.6206    1.5723 H   0  0  0  0  0  0  0  0  0  0  0  0
    3.4909   -1.9993    1.7157 H   0  0  0  0  0  0  0  0  0  0  0  0
    1.7930   -2.2727    2.0937 H   0  0  0  0  0  0  0  0  0  0  0  0
   -2.9078   -0.2850    2.2178 H   0  0  0  0  0  0  0  0  0  0  0  0
   -2.1102    0.7361   -1.8996 H   0  0  0  0  0  0  0  0  0  0  0  0
   -5.0220   -1.3592    1.5275 H   0  0  0  0  0  0  0  0  0  0  0  0
   -4.2239   -0.3254   -2.5659 H   0  0  0  0  0  0  0  0  0  0  0  0
   -5.6861   -1.3807   -0.8625 H   0  0  0  0  0  0  0  0  0  0  0  0
  1 10  1  0  0  0  0
  1 14  1  0  0  0  0
  2 14  2  0  0  0  0
  3  4  1  0  0  0  0
  3  5  1  0  0  0  0
  3 20  1  0  0  0  0
  3 21  1  0  0  0  0
  4  6  1  0  0  0  0
  4 22  1  0  0  0  0
  4 23  1  0  0  0  0
  5  7  2  0  0  0  0
  5  8  1  0  0  0  0
  6  9  2  0  0  0  0
  6 24  1  0  0  0  0
  7 10  1  0  0  0  0
  7 25  1  0  0  0  0
  8 26  1  0  0  0  0
  8 27  1  0  0  0  0
  8 28  1  0  0  0  0
  9 11  1  0  0  0  0
  9 12  1  0  0  0  0
 10 29  1  0  0  0  0
 10 30  1  0  0  0  0
 11 31  1  0  0  0  0
 11 32  1  0  0  0  0
 11 33  1  0  0  0  0
 12 34  1  0  0  0  0
 12 35  1  0  0  0  0
 12 36  1  0  0  0  0
 13 14  1  0  0  0  0
 13 15  2  0  0  0  0
 13 16  1  0  0  0  0
 15 17  1  0  0  0  0
 15 37  1  0  0  0  0
 16 18  2  0  0  0  0
 16 38  1  0  0  0  0
 17 19  2  0  0  0  0
 17 39  1  0  0  0  0
 18 19  1  0  0  0  0
 18 40  1  0  0  0  0
 19 41  1  0  0  0  0
M  END
> <PUBCHEM_COMPOUND_CID>
5353011

> <PUBCHEM_CONFORMER_RMSD>
0.8

> <PUBCHEM_CONFORMER_DIVERSEORDER>
3
128
338
176
203
129
209
289
249
191
211
379
255
48
380
63
105
143
155
164
130
313
183
182
64
320
186
116
236
356
276
140
345
148
221
175
127
115
291
201
101
303
120
227
373
96
229
187
375
285
234
336
27
194
32
337
118
309
240
38
146
298
300
181
98
149
262
396
395
177
110
166
225
69
85
75
390
137
268
296
353
251
346
52
369
231
359
252
362
270
290
351
327
213
125
5
30
21
207
259
119
224
170
136
280
355
324
205
228
152
318
348
349
365
295
114
131
278
156
257
378
383
254
372
301
250
55
333
265
157
33
297
272
310
202
189
342
74
344
144
299
197
302
73
158
269
358
49
133
76
15
163
160
314
107
392
165
253
212
397
218
293
44
18
26
135
331
266
104
14
286
340
117
92
188
99
111
174
384
321
184
83
284
178
112
10
172
208
277
113
151
206
316
347
91
42
260
62
87
264
6
370
45
279
68
36
376
357
190
381
200
81
71
329
78
103
22
305
16
261
232
154
363
258
17
121
80
50
242
287
195
328
292
238
391
282
41
215
311
273
283
150
223
139
341
126
65
147
246
51
37
97
162
70
304
159
308
219
35
288
350
307
106
334
220
330
7
332
377
263
315
275
326
368
354
82
387
66
210
31
214
343
173
8
58
23
217
60
20
122
89
204
226
180
4
243
167
196
192
95
281
39
77
9
94
239
141
84
371
185
56
88
389
360
319
168
46
57
247
153
306
179
235
100
161
386
317
325
12
138
28
230
132
361
216
193
222
294
61
72
233
2
382
59
53
142
171
47
123
339
134
388
323
90
29
393
366
352
86
25
256
385
198
199
364
13
274
67
312
374
11
1
102
335
169
248
24
124
43
394
237
244
241
93
271
145
40
109
322
108
34
367
245
267
19
79
54

> <PUBCHEM_MMFF94_PARTIAL_CHARGES>
26
1 -0.43
10 0.42
11 0.14
12 0.14
13 0.09
14 0.63
15 -0.15
16 -0.15
17 -0.15
18 -0.15
19 -0.15
2 -0.57
24 0.15
25 0.15
3 0.14
37 0.15
38 0.15
39 0.15
4 0.14
40 0.15
41 0.15
5 -0.28
6 -0.29
7 -0.29
8 0.14
9 -0.28

> <PUBCHEM_EFFECTIVE_ROTOR_COUNT>
7

> <PUBCHEM_PHARMACOPHORE_FEATURES>
5
1 2 acceptor
1 8 hydrophobe
3 9 11 12 hydrophobe
4 3 4 5 6 hydrophobe
6 13 15 16 17 18 19 rings

> <PUBCHEM_HEAVY_ATOM_COUNT>
19

> <PUBCHEM_ATOM_DEF_STEREO_COUNT>
0

> <PUBCHEM_ATOM_UDEF_STEREO_COUNT>
0

> <PUBCHEM_BOND_DEF_STEREO_COUNT>
1

> <PUBCHEM_BOND_UDEF_STEREO_COUNT>
0

> <PUBCHEM_ISOTOPIC_ATOM_COUNT>
0

> <PUBCHEM_COMPONENT_COUNT>
1

> <PUBCHEM_CACTVS_TAUTO_COUNT>
1

> <PUBCHEM_CONFORMER_ID>
0051AE3300000003

> <PUBCHEM_MMFF94_ENERGY>
35.1987

> <PUBCHEM_FEATURE_SELFOVERLAP>
25.391

> <PUBCHEM_SHAPE_FINGERPRINT>
12553582 1 18339648815102406587
12596599 1 17486512398899339294
13464513 79 18343024393778723966
14251717 144 18411421730212745822
14251757 17 17821722806698222277
14848160 33 18334572408666713379
15635459 17 18333452053583541259
17138139 8 17196551722015578911
17492 54 18263380195321202166
17818456 19 17772766978679313281
20291156 8 18272375217673648348
20645477 70 18189054364139565145
20775530 9 17910394983257509514
21285901 2 17894618245887343741
235170 7 17313104172032758655
23557571 272 17693638339294668922
23559900 14 17968090880850752350
23596394 208 18261100885994098551
238 59 18335994137684099154
2871803 45 18409173199248994084
3060560 45 18261955266653271124
3323516 105 18261395580779945347
33824 294 18411136978545324748
4283 87 18199460133684612935
46194498 28 17604715611228680349
463206 1 18340205305667653455
59682541 52 18265870525007867191

> <PUBCHEM_SHAPE_MULTIPOLES>
379.27
8.79
3.12
1.4
6.29
1.1
0.19
2.5
-1.4
-3.13
0.2
0.22
0.13
-0.12

> <PUBCHEM_SHAPE_SELFOVERLAP>
764.246

> <PUBCHEM_SHAPE_VOLUME>
222.6

> <PUBCHEM_COORDINATE_TYPE>
2
5
10

$$$$
