5354834
  -OEChem-11232108423D

 29 28  0     0  0  0  0  0  0999 V2000
    4.1559    2.0123   -0.0765 O   0  0  0  0  0  0  0  0  0  0  0  0
   -1.9811   -0.0907    0.4386 C   0  0  0  0  0  0  0  0  0  0  0  0
   -0.8351   -0.5405   -0.4716 C   0  0  0  0  0  0  0  0  0  0  0  0
   -3.2883    0.0484   -0.3450 C   0  0  0  0  0  0  0  0  0  0  0  0
    0.4652   -0.7162    0.3191 C   0  0  0  0  0  0  0  0  0  0  0  0
   -4.4741    0.4734    0.5237 C   0  0  0  0  0  0  0  0  0  0  0  0
    1.6341   -1.1948   -0.5479 C   0  0  0  0  0  0  0  0  0  0  0  0
   -5.7895    0.5443   -0.2364 C   0  0  0  0  0  0  0  0  0  0  0  0
    2.9246   -1.3011    0.2133 C   0  0  0  0  0  0  0  0  0  0  0  0
    3.7648   -0.2732    0.3828 C   0  0  0  0  0  0  0  0  0  0  0  0
    3.4234    1.0381   -0.2001 C   0  0  0  0  0  0  0  0  0  0  0  0
   -1.7288    0.8692    0.9050 H   0  0  0  0  0  0  0  0  0  0  0  0
   -2.1167   -0.8186    1.2475 H   0  0  0  0  0  0  0  0  0  0  0  0
   -0.6834    0.1982   -1.2677 H   0  0  0  0  0  0  0  0  0  0  0  0
   -1.0980   -1.4893   -0.9547 H   0  0  0  0  0  0  0  0  0  0  0  0
   -3.1537    0.7802   -1.1512 H   0  0  0  0  0  0  0  0  0  0  0  0
   -3.5235   -0.9103   -0.8243 H   0  0  0  0  0  0  0  0  0  0  0  0
    0.3016   -1.4361    1.1314 H   0  0  0  0  0  0  0  0  0  0  0  0
    0.7194    0.2388    0.7955 H   0  0  0  0  0  0  0  0  0  0  0  0
   -4.2654    1.4542    0.9672 H   0  0  0  0  0  0  0  0  0  0  0  0
   -4.5869   -0.2332    1.3546 H   0  0  0  0  0  0  0  0  0  0  0  0
    1.3963   -2.2012   -0.9193 H   0  0  0  0  0  0  0  0  0  0  0  0
    1.7319   -0.5951   -1.4590 H   0  0  0  0  0  0  0  0  0  0  0  0
   -5.7276    1.2675   -1.0557 H   0  0  0  0  0  0  0  0  0  0  0  0
   -6.5991    0.8537    0.4320 H   0  0  0  0  0  0  0  0  0  0  0  0
   -6.0495   -0.4317   -0.6584 H   0  0  0  0  0  0  0  0  0  0  0  0
    3.1710   -2.2615    0.6575 H   0  0  0  0  0  0  0  0  0  0  0  0
    4.6879   -0.3723    0.9402 H   0  0  0  0  0  0  0  0  0  0  0  0
    2.4745    1.1425   -0.7402 H   0  0  0  0  0  0  0  0  0  0  0  0
  1 11  2  0  0  0  0
  2  3  1  0  0  0  0
  2  4  1  0  0  0  0
  2 12  1  0  0  0  0
  2 13  1  0  0  0  0
  3  5  1  0  0  0  0
  3 14  1  0  0  0  0
  3 15  1  0  0  0  0
  4  6  1  0  0  0  0
  4 16  1  0  0  0  0
  4 17  1  0  0  0  0
  5  7  1  0  0  0  0
  5 18  1  0  0  0  0
  5 19  1  0  0  0  0
  6  8  1  0  0  0  0
  6 20  1  0  0  0  0
  6 21  1  0  0  0  0
  7  9  1  0  0  0  0
  7 22  1  0  0  0  0
  7 23  1  0  0  0  0
  8 24  1  0  0  0  0
  8 25  1  0  0  0  0
  8 26  1  0  0  0  0
  9 10  2  0  0  0  0
  9 27  1  0  0  0  0
 10 11  1  0  0  0  0
 10 28  1  0  0  0  0
 11 29  1  0  0  0  0
M  END
> <PUBCHEM_COMPOUND_CID>
5354834

> <PUBCHEM_CONFORMER_RMSD>
0.8

> <PUBCHEM_CONFORMER_DIVERSEORDER>
3
37
28
14
104
15
67
84
49
17
1
108
101
69
5
94
64
39
21
105
2
6
54
56
22
4
73
93
26
95
97
110
98
10
99
70
41
74
59
89
7
107
36
55
86
8
44
13
61
88
9
23
16
50
31
35
29
81
102
66
68
65
60
78
27
12
46
77
34
51
33
20
11
71
57
30
40
45
18
38
42
76
53
90
106
47
52
72
62
109
19
100
24
43
63
96
32
85
48
58
83
25
87
75
80
82
91
92
103
79

> <PUBCHEM_MMFF94_PARTIAL_CHARGES>
8
1 -0.57
10 -0.14
11 0.5
27 0.15
28 0.15
29 0.06
7 0.14
9 -0.29

> <PUBCHEM_EFFECTIVE_ROTOR_COUNT>
7

> <PUBCHEM_PHARMACOPHORE_FEATURES>
2
1 1 acceptor
1 8 hydrophobe

> <PUBCHEM_HEAVY_ATOM_COUNT>
11

> <PUBCHEM_ATOM_DEF_STEREO_COUNT>
0

> <PUBCHEM_ATOM_UDEF_STEREO_COUNT>
0

> <PUBCHEM_BOND_DEF_STEREO_COUNT>
1

> <PUBCHEM_BOND_UDEF_STEREO_COUNT>
0

> <PUBCHEM_ISOTOPIC_ATOM_COUNT>
0

> <PUBCHEM_COMPONENT_COUNT>
1

> <PUBCHEM_CACTVS_TAUTO_COUNT>
1

> <PUBCHEM_CONFORMER_ID>
0051B55200000003

> <PUBCHEM_MMFF94_ENERGY>
4.2047

> <PUBCHEM_FEATURE_SELFOVERLAP>
10.148

> <PUBCHEM_SHAPE_FINGERPRINT>
10912923 1 18202562848524667875
11287383 113 18408042918649641243
12616999 72 16774081747689857366
13081056 2 18334294236577564005
13237642 15 18041006175968731075
13690532 89 8790886280937296589
14123238 8 18131630072051066351
14251732 16 18336830900851614883
14252887 29 12757145758615029032
14455015 7 10807933795346063541
14774955 27 18337389447714711996
15342168 16 18189339129203448508
177051 138 10881394335913441786
17834072 33 18201433710175339871
17834076 25 17775565321491448087
20606313 2 18412263943535498000
20621476 21 13254225177302787077
20645477 70 18129664080256527223
20828058 21 14836402515235670267
212847 35 18273493468428496184
21652331 79 18409448081161177085
22959321 54 18413393141850740600
22959321 60 18187370981635155498
23380061 50 18040439914147313482
23402539 116 13984663659937276011
23402655 69 18131350821149970846
23532345 1 18410859836816264403
270888 7 18194401324057309868
4047638 21 18408324380409166458
42 15 10737285740686277291
42788 4 18410011005892933491
449060 50 18409732850651792047
449060 62 18411982477211901996
4990 188 13110962015689435311
5374978 207 17967248672065612417
537710 114 18060420213688076105
57483677 66 8574419925330449105
94968 8 10159704594835185220

> <PUBCHEM_SHAPE_MULTIPOLES>
220.51
11.67
1.39
0.75
11.05
0.47
0
4.5
-0.23
-2.14
0.08
0.12
-0.05
-0.18

> <PUBCHEM_SHAPE_SELFOVERLAP>
398.671

> <PUBCHEM_SHAPE_VOLUME>
141.2

> <PUBCHEM_COORDINATE_TYPE>
2
5
10

$$$$
