5354776
  -OEChem-11232108403D

 30 31  0     1  0  0  0  0  0999 V2000
   -3.5161   -0.7074   -0.6635 O   0  0  0  0  0  0  0  0  0  0  0  0
    1.7225    0.7674   -0.0466 C   0  0  1  0  0  0  0  0  0  0  0  0
    0.1701    0.9691   -0.0698 C   0  0  0  0  0  0  0  0  0  0  0  0
    0.9965   -1.2212    0.6680 C   0  0  1  0  0  0  0  0  0  0  0  0
    1.9237   -0.1249    1.1889 C   0  0  0  0  0  0  0  0  0  0  0  0
    2.2021   -0.2031   -1.1500 C   0  0  0  0  0  0  0  0  0  0  0  0
   -0.2612   -0.4165    0.3998 C   0  0  0  0  0  0  0  0  0  0  0  0
    1.6373   -1.5593   -0.6885 C   0  0  0  0  0  0  0  0  0  0  0  0
   -0.2554    2.0702    0.9190 C   0  0  0  0  0  0  0  0  0  0  0  0
   -0.3781    1.3220   -1.4594 C   0  0  0  0  0  0  0  0  0  0  0  0
   -1.5106   -0.8558    0.5875 C   0  0  0  0  0  0  0  0  0  0  0  0
   -2.7308   -0.0405    0.3146 C   0  0  0  0  0  0  0  0  0  0  0  0
    2.2893    1.7019   -0.0286 H   0  0  0  0  0  0  0  0  0  0  0  0
    0.8645   -2.0766    1.3332 H   0  0  0  0  0  0  0  0  0  0  0  0
    1.5902    0.3265    2.1281 H   0  0  0  0  0  0  0  0  0  0  0  0
    2.9596   -0.4621    1.3102 H   0  0  0  0  0  0  0  0  0  0  0  0
    3.2980   -0.2450   -1.1696 H   0  0  0  0  0  0  0  0  0  0  0  0
    1.8676    0.0688   -2.1543 H   0  0  0  0  0  0  0  0  0  0  0  0
    0.9181   -1.9677   -1.4065 H   0  0  0  0  0  0  0  0  0  0  0  0
    2.4510   -2.2835   -0.5694 H   0  0  0  0  0  0  0  0  0  0  0  0
   -1.3135    2.3341    0.8531 H   0  0  0  0  0  0  0  0  0  0  0  0
   -0.0637    1.7931    1.9611 H   0  0  0  0  0  0  0  0  0  0  0  0
    0.3057    2.9911    0.7194 H   0  0  0  0  0  0  0  0  0  0  0  0
   -0.4278    0.4489   -2.1195 H   0  0  0  0  0  0  0  0  0  0  0  0
   -1.3756    1.7678   -1.4393 H   0  0  0  0  0  0  0  0  0  0  0  0
    0.2711    2.0636   -1.9407 H   0  0  0  0  0  0  0  0  0  0  0  0
   -1.6654   -1.8698    0.9479 H   0  0  0  0  0  0  0  0  0  0  0  0
   -2.5893    0.9806   -0.0164 H   0  0  0  0  0  0  0  0  0  0  0  0
   -3.3271    0.0093    1.2320 H   0  0  0  0  0  0  0  0  0  0  0  0
   -3.0170   -0.6950   -1.4984 H   0  0  0  0  0  0  0  0  0  0  0  0
  1 12  1  0  0  0  0
  1 30  1  0  0  0  0
  2  3  1  0  0  0  0
  2  5  1  0  0  0  0
  2  6  1  0  0  0  0
  2 13  1  0  0  0  0
  3  7  1  0  0  0  0
  3  9  1  0  0  0  0
  3 10  1  0  0  0  0
  4  5  1  0  0  0  0
  4  7  1  0  0  0  0
  4  8  1  0  0  0  0
  4 14  1  0  0  0  0
  5 15  1  0  0  0  0
  5 16  1  0  0  0  0
  6  8  1  0  0  0  0
  6 17  1  0  0  0  0
  6 18  1  0  0  0  0
  7 11  2  0  0  0  0
  8 19  1  0  0  0  0
  8 20  1  0  0  0  0
  9 21  1  0  0  0  0
  9 22  1  0  0  0  0
  9 23  1  0  0  0  0
 10 24  1  0  0  0  0
 10 25  1  0  0  0  0
 10 26  1  0  0  0  0
 11 12  1  0  0  0  0
 11 27  1  0  0  0  0
 12 28  1  0  0  0  0
 12 29  1  0  0  0  0
M  END
> <PUBCHEM_COMPOUND_CID>
5354776

> <PUBCHEM_CONFORMER_RMSD>
0.4

> <PUBCHEM_CONFORMER_DIVERSEORDER>
2
3
1
4

> <PUBCHEM_MMFF94_PARTIAL_CHARGES>
8
1 -0.68
11 -0.29
12 0.42
27 0.15
3 0.14
30 0.4
4 0.14
7 -0.28

> <PUBCHEM_EFFECTIVE_ROTOR_COUNT>
1.8

> <PUBCHEM_PHARMACOPHORE_FEATURES>
4
1 1 acceptor
1 1 donor
3 3 9 10 hydrophobe
7 2 3 4 5 6 7 8 rings

> <PUBCHEM_HEAVY_ATOM_COUNT>
12

> <PUBCHEM_ATOM_DEF_STEREO_COUNT>
0

> <PUBCHEM_ATOM_UDEF_STEREO_COUNT>
2

> <PUBCHEM_BOND_DEF_STEREO_COUNT>
1

> <PUBCHEM_BOND_UDEF_STEREO_COUNT>
0

> <PUBCHEM_ISOTOPIC_ATOM_COUNT>
0

> <PUBCHEM_COMPONENT_COUNT>
1

> <PUBCHEM_CACTVS_TAUTO_COUNT>
1

> <PUBCHEM_CONFORMER_ID>
0051B51800000002

> <PUBCHEM_MMFF94_ENERGY>
40.9571

> <PUBCHEM_FEATURE_SELFOVERLAP>
20.297

> <PUBCHEM_SHAPE_FINGERPRINT>
12423570 1 9866470431301379730
13024252 1 14714881127195865486
13571099 52 13984956185115506454
137420 1 10950036864031307960
14120999 15 17750825231455189892
15775835 57 9583514309090580767
16945 1 18336842960307236328
21501502 16 18196947565073514058
23419403 2 17685724230427923392
241688 4 17972046837983206440
2748010 2 18192146005920707717
5084963 1 18042690490180058194
528886 8 17531532095355138533
68250623 7 17771933548548433988

> <PUBCHEM_SHAPE_MULTIPOLES>
241.09
3.51
1.7
1.25
2.78
0.47
0.16
-1.21
0.57
-0.06
-0.07
-0.28
0.21
0.03

> <PUBCHEM_SHAPE_SELFOVERLAP>
505.639

> <PUBCHEM_SHAPE_VOLUME>
142.8

> <PUBCHEM_COORDINATE_TYPE>
2
5
10

$$$$
