5354280
  -OEChem-11232109273D

 27 27  0     0  0  0  0  0  0999 V2000
   -2.6492   -0.2372    0.5254 O   0  0  0  0  0  0  0  0  0  0  0  0
   -1.5527    2.2751    0.0649 O   0  0  0  0  0  0  0  0  0  0  0  0
   -1.3097   -0.0927    0.3241 C   0  0  0  0  0  0  0  0  0  0  0  0
    1.4366    0.1766   -0.0859 C   0  0  0  0  0  0  0  0  0  0  0  0
   -0.7594    1.1680    0.0928 C   0  0  0  0  0  0  0  0  0  0  0  0
    0.6137    1.3026   -0.1122 C   0  0  0  0  0  0  0  0  0  0  0  0
   -0.4869   -1.2187    0.3505 C   0  0  0  0  0  0  0  0  0  0  0  0
    0.8862   -1.0841    0.1454 C   0  0  0  0  0  0  0  0  0  0  0  0
   -3.3569   -1.0666   -0.3942 C   0  0  0  0  0  0  0  0  0  0  0  0
    2.8683    0.3169   -0.2996 C   0  0  0  0  0  0  0  0  0  0  0  0
   -4.7842   -0.5742   -0.5045 C   0  0  0  0  0  0  0  0  0  0  0  0
    3.8152   -0.5783    0.0626 C   0  0  0  0  0  0  0  0  0  0  0  0
    5.2790   -0.3875   -0.1694 C   0  0  0  0  0  0  0  0  0  0  0  0
    1.0312    2.2914   -0.2902 H   0  0  0  0  0  0  0  0  0  0  0  0
   -0.9011   -2.2065    0.5335 H   0  0  0  0  0  0  0  0  0  0  0  0
    1.4846   -1.9903    0.1565 H   0  0  0  0  0  0  0  0  0  0  0  0
   -2.8894   -1.0418   -1.3864 H   0  0  0  0  0  0  0  0  0  0  0  0
   -3.3466   -2.0975   -0.0242 H   0  0  0  0  0  0  0  0  0  0  0  0
    3.1870    1.2367   -0.7859 H   0  0  0  0  0  0  0  0  0  0  0  0
   -5.3604   -1.1961   -1.1952 H   0  0  0  0  0  0  0  0  0  0  0  0
   -5.2736   -0.5873    0.4750 H   0  0  0  0  0  0  0  0  0  0  0  0
   -4.8076    0.4620   -0.8580 H   0  0  0  0  0  0  0  0  0  0  0  0
    3.5526   -1.4991    0.5747 H   0  0  0  0  0  0  0  0  0  0  0  0
   -2.4718    1.9966    0.2223 H   0  0  0  0  0  0  0  0  0  0  0  0
    5.8119   -0.3952    0.7862 H   0  0  0  0  0  0  0  0  0  0  0  0
    5.6674   -1.2028   -0.7874 H   0  0  0  0  0  0  0  0  0  0  0  0
    5.4980    0.5581   -0.6751 H   0  0  0  0  0  0  0  0  0  0  0  0
  1  3  1  0  0  0  0
  1  9  1  0  0  0  0
  2  5  1  0  0  0  0
  2 24  1  0  0  0  0
  3  5  2  0  0  0  0
  3  7  1  0  0  0  0
  4  6  2  0  0  0  0
  4  8  1  0  0  0  0
  4 10  1  0  0  0  0
  5  6  1  0  0  0  0
  6 14  1  0  0  0  0
  7  8  2  0  0  0  0
  7 15  1  0  0  0  0
  8 16  1  0  0  0  0
  9 11  1  0  0  0  0
  9 17  1  0  0  0  0
  9 18  1  0  0  0  0
 10 12  2  0  0  0  0
 10 19  1  0  0  0  0
 11 20  1  0  0  0  0
 11 21  1  0  0  0  0
 11 22  1  0  0  0  0
 12 13  1  0  0  0  0
 12 23  1  0  0  0  0
 13 25  1  0  0  0  0
 13 26  1  0  0  0  0
 13 27  1  0  0  0  0
M  END
> <PUBCHEM_COMPOUND_CID>
5354280

> <PUBCHEM_CONFORMER_RMSD>
0.6

> <PUBCHEM_CONFORMER_DIVERSEORDER>
1
6
8
4
7
9
3
2
5

> <PUBCHEM_MMFF94_PARTIAL_CHARGES>
18
1 -0.36
10 -0.18
12 -0.29
13 0.14
14 0.15
15 0.15
16 0.15
19 0.15
2 -0.53
23 0.15
24 0.45
3 0.08
4 0.03
5 0.08
6 -0.15
7 -0.15
8 -0.15
9 0.28

> <PUBCHEM_EFFECTIVE_ROTOR_COUNT>
3

> <PUBCHEM_PHARMACOPHORE_FEATURES>
4
1 1 acceptor
1 13 hydrophobe
1 2 donor
6 3 4 5 6 7 8 rings

> <PUBCHEM_HEAVY_ATOM_COUNT>
13

> <PUBCHEM_ATOM_DEF_STEREO_COUNT>
0

> <PUBCHEM_ATOM_UDEF_STEREO_COUNT>
0

> <PUBCHEM_BOND_DEF_STEREO_COUNT>
1

> <PUBCHEM_BOND_UDEF_STEREO_COUNT>
0

> <PUBCHEM_ISOTOPIC_ATOM_COUNT>
0

> <PUBCHEM_COMPONENT_COUNT>
1

> <PUBCHEM_CACTVS_TAUTO_COUNT>
3

> <PUBCHEM_CONFORMER_ID>
0051B32800000001

> <PUBCHEM_MMFF94_ENERGY>
35.629

> <PUBCHEM_FEATURE_SELFOVERLAP>
20.297

> <PUBCHEM_SHAPE_FINGERPRINT>
11062470 55 13190337976380947514
11206711 2 18334580118201445405
11401426 45 18410569604379917175
12032990 46 18337114578476654827
12251169 10 10375868584644505383
13690532 89 18408040727773240886
13760787 5 18260841422244744749
13862211 1 18410569604290688146
14115302 16 17894919576060188670
14325111 11 18337113350569435328
14911166 2 18260828228189717903
14943859 89 9007059062892896404
14993402 34 18334857238060173078
16945 1 18335998526718604442
187816 3 18113617897791480787
19026448 4 15647342986547524248
200 152 18411132537153430471
20510252 161 18271810077751376864
21029758 11 18412825810914756096
21267235 1 18410864282466137699
21501502 16 18119809114665718858
221490 88 17903639927835590307
23402539 116 18413384336893327823
23402655 69 18263349331902549525
23557571 272 17988932128313892876
23559900 14 18337109090030676904
2748010 2 18121792620567277782
3286 77 17417809582077619696
43471831 8 18189333481458993922
53655031 270 18335139773804005291
68521 5 18409729534689366589
69090 78 18131067156178127022

> <PUBCHEM_SHAPE_MULTIPOLES>
255.8
8.42
1.53
0.68
2.88
0.71
-0.01
-2.83
-1.45
-0.67
0.04
-0.13
-0.05
-0.2

> <PUBCHEM_SHAPE_SELFOVERLAP>
520.247

> <PUBCHEM_SHAPE_VOLUME>
149.4

> <PUBCHEM_COORDINATE_TYPE>
2
5
10

$$$$
