5355899
  -OEChem-11232109273D

 40 41  0     0  0  0  0  0  0999 V2000
    0.2375   -0.0250   -0.7286 O   0  0  0  0  0  0  0  0  0  0  0  0
    1.6740   -1.9661    0.6471 O   0  0  0  0  0  0  0  0  0  0  0  0
   -0.3358    0.9525    1.3187 O   0  0  0  0  0  0  0  0  0  0  0  0
    4.2269    0.6161    0.2257 C   0  0  0  0  0  0  0  0  0  0  0  0
    5.6597    0.8500    0.5663 C   0  0  0  0  0  0  0  0  0  0  0  0
    3.6076   -0.5770    0.5983 C   0  0  0  0  0  0  0  0  0  0  0  0
    2.2675   -0.7962    0.2796 C   0  0  0  0  0  0  0  0  0  0  0  0
    3.5060    1.5899   -0.4655 C   0  0  0  0  0  0  0  0  0  0  0  0
    1.5805    0.1827   -0.4035 C   0  0  0  0  0  0  0  0  0  0  0  0
    2.1660    1.3705   -0.7841 C   0  0  0  0  0  0  0  0  0  0  0  0
    6.6064    0.3695   -0.5029 C   0  0  0  0  0  0  0  0  0  0  0  0
   -4.4576    0.2327    0.2084 C   0  0  0  0  0  0  0  0  0  0  0  0
   -0.6271    0.4239    0.2570 C   0  0  0  0  0  0  0  0  0  0  0  0
   -3.0651    0.4664    0.5566 C   0  0  0  0  0  0  0  0  0  0  0  0
   -2.0035    0.1435   -0.2149 C   0  0  0  0  0  0  0  0  0  0  0  0
   -4.8203    0.0312   -1.1234 C   0  0  0  0  0  0  0  0  0  0  0  0
   -5.4306    0.2083    1.2075 C   0  0  0  0  0  0  0  0  0  0  0  0
    1.7416   -3.0468   -0.2812 C   0  0  0  0  0  0  0  0  0  0  0  0
   -6.1560   -0.1950   -1.4559 C   0  0  0  0  0  0  0  0  0  0  0  0
   -6.7662   -0.0179    0.8749 C   0  0  0  0  0  0  0  0  0  0  0  0
    7.5175   -0.5935   -0.3233 C   0  0  0  0  0  0  0  0  0  0  0  0
   -7.1290   -0.2195   -0.4568 C   0  0  0  0  0  0  0  0  0  0  0  0
    5.8336    1.9221    0.7264 H   0  0  0  0  0  0  0  0  0  0  0  0
    5.8902    0.3776    1.5305 H   0  0  0  0  0  0  0  0  0  0  0  0
    4.1648   -1.3401    1.1367 H   0  0  0  0  0  0  0  0  0  0  0  0
    3.9767    2.5232   -0.7631 H   0  0  0  0  0  0  0  0  0  0  0  0
    1.6056    2.1279   -1.3232 H   0  0  0  0  0  0  0  0  0  0  0  0
    6.5486    0.8531   -1.4752 H   0  0  0  0  0  0  0  0  0  0  0  0
   -2.8969    0.9291    1.5269 H   0  0  0  0  0  0  0  0  0  0  0  0
   -2.1029   -0.3426   -1.1788 H   0  0  0  0  0  0  0  0  0  0  0  0
   -4.1009    0.0611   -1.9365 H   0  0  0  0  0  0  0  0  0  0  0  0
   -5.1671    0.3618    2.2513 H   0  0  0  0  0  0  0  0  0  0  0  0
    2.7829   -3.3282   -0.4669 H   0  0  0  0  0  0  0  0  0  0  0  0
    1.2511   -2.7775   -1.2220 H   0  0  0  0  0  0  0  0  0  0  0  0
    1.2193   -3.9040    0.1524 H   0  0  0  0  0  0  0  0  0  0  0  0
   -6.4397   -0.3475   -2.4932 H   0  0  0  0  0  0  0  0  0  0  0  0
   -7.5240   -0.0370    1.6528 H   0  0  0  0  0  0  0  0  0  0  0  0
    8.1746   -0.8866   -1.1348 H   0  0  0  0  0  0  0  0  0  0  0  0
    7.6228   -1.1037    0.6277 H   0  0  0  0  0  0  0  0  0  0  0  0
   -8.1691   -0.3945   -0.7158 H   0  0  0  0  0  0  0  0  0  0  0  0
  1  9  1  0  0  0  0
  1 13  1  0  0  0  0
  2  7  1  0  0  0  0
  2 18  1  0  0  0  0
  3 13  2  0  0  0  0
  4  5  1  0  0  0  0
  4  6  2  0  0  0  0
  4  8  1  0  0  0  0
  5 11  1  0  0  0  0
  5 23  1  0  0  0  0
  5 24  1  0  0  0  0
  6  7  1  0  0  0  0
  6 25  1  0  0  0  0
  7  9  2  0  0  0  0
  8 10  2  0  0  0  0
  8 26  1  0  0  0  0
  9 10  1  0  0  0  0
 10 27  1  0  0  0  0
 11 21  2  0  0  0  0
 11 28  1  0  0  0  0
 12 14  1  0  0  0  0
 12 16  2  0  0  0  0
 12 17  1  0  0  0  0
 13 15  1  0  0  0  0
 14 15  2  0  0  0  0
 14 29  1  0  0  0  0
 15 30  1  0  0  0  0
 16 19  1  0  0  0  0
 16 31  1  0  0  0  0
 17 20  2  0  0  0  0
 17 32  1  0  0  0  0
 18 33  1  0  0  0  0
 18 34  1  0  0  0  0
 18 35  1  0  0  0  0
 19 22  2  0  0  0  0
 19 36  1  0  0  0  0
 20 22  1  0  0  0  0
 20 37  1  0  0  0  0
 21 38  1  0  0  0  0
 21 39  1  0  0  0  0
 22 40  1  0  0  0  0
M  END
> <PUBCHEM_COMPOUND_CID>
5355899

> <PUBCHEM_CONFORMER_RMSD>
0.8

> <PUBCHEM_CONFORMER_DIVERSEORDER>
1
90
43
77
28
106
38
110
64
52
32
123
125
14
129
46
114
27
122
96
2
87
127
70
117
56
107
99
3
112
19
102
118
103
61
54
134
40
85
68
33
109
18
74
41
67
4
53
89
73
124
16
9
111
66
22
44
91
7
113
23
72
97
101
130
47
51
131
128
5
79
104
57
115
82
10
13
78
100
21
81
8
121
132
120
69
45
94
71
35
84
34
95
11
133
63
6
36
105
119
116
24
88
86
126
108
31
30
20
50
59
93
83
62
55
75
49
26
65
60
98
29
92
58
39
80
37
42
12
25
17
15
76
48

> <PUBCHEM_MMFF94_PARTIAL_CHARGES>
35
1 -0.23
10 -0.15
11 -0.29
12 0.03
13 0.71
14 -0.18
15 -0.14
16 -0.15
17 -0.15
18 0.28
19 -0.15
2 -0.36
20 -0.15
21 -0.3
22 -0.15
25 0.15
26 0.15
27 0.15
28 0.15
29 0.15
3 -0.57
30 0.15
31 0.15
32 0.15
36 0.15
37 0.15
38 0.15
39 0.15
4 -0.14
40 0.15
5 0.28
6 -0.15
7 0.08
8 -0.15
9 0.08

> <PUBCHEM_EFFECTIVE_ROTOR_COUNT>
7

> <PUBCHEM_PHARMACOPHORE_FEATURES>
5
1 2 acceptor
1 21 hydrophobe
1 3 acceptor
6 12 16 17 19 20 22 rings
6 4 6 7 8 9 10 rings

> <PUBCHEM_HEAVY_ATOM_COUNT>
22

> <PUBCHEM_ATOM_DEF_STEREO_COUNT>
0

> <PUBCHEM_ATOM_UDEF_STEREO_COUNT>
0

> <PUBCHEM_BOND_DEF_STEREO_COUNT>
1

> <PUBCHEM_BOND_UDEF_STEREO_COUNT>
0

> <PUBCHEM_ISOTOPIC_ATOM_COUNT>
0

> <PUBCHEM_COMPONENT_COUNT>
1

> <PUBCHEM_CACTVS_TAUTO_COUNT>
1

> <PUBCHEM_CONFORMER_ID>
0051B97B00000001

> <PUBCHEM_MMFF94_ENERGY>
73.4801

> <PUBCHEM_FEATURE_SELFOVERLAP>
25.371

> <PUBCHEM_SHAPE_FINGERPRINT>
10299344 5 17632296774443288999
11315181 36 16845573141449302857
11719270 70 18260544515952096082
12011746 2 17894916222418386304
12091667 2 18343585140577660577
12166972 35 18201720665330672512
12236239 1 17989205958227821516
12788726 201 17131278961335819459
13533116 47 18200875085217491130
13836976 161 18334580157146061006
14123256 10 18411136939516020753
14170010 4 18259984890493057812
14251764 46 18334013895830948008
15419008 47 17530676624054868349
15461852 350 15936689359303382003
15849732 13 18041000665921264348
17844677 252 16298392362187050701
20645477 70 18261111838155649299
20771845 171 17240774948138917838
21054139 6 18272079552336521311
21150785 3 12685095899122429448
21267235 1 18335145280384855212
21315763 178 18202282490302504145
21623969 137 18261399953457819931
22224240 67 18410289233726727538
22956985 138 17608920998978045290
23035841 295 16988843882313029693
23402539 116 16515681173781720327
23559900 14 18187365475703652129
300161 21 18060136527599526301
335352 9 18409171022433681206
3545911 37 18260830410054001889
42630746 31 18410294700935375494
4325135 7 18272369772098397565
4340502 62 18410294726430931051
465052 167 17603303748425756792
5758199 1 18272370892894762962
59755656 215 18187082832696017558
59755656 520 18059850688134554254

> <PUBCHEM_SHAPE_MULTIPOLES>
435.14
20.17
1.56
1.1
8.64
1.29
-0.03
-0.7
-1.52
-2.06
-0.07
1.24
-0.08
-0.38

> <PUBCHEM_SHAPE_SELFOVERLAP>
920.11

> <PUBCHEM_SHAPE_VOLUME>
242

> <PUBCHEM_COORDINATE_TYPE>
2
5
10

$$$$
