5355254
  -OEChem-11232109093D

 31 31  0     0  0  0  0  0  0999 V2000
   -1.9384   -0.0466   -0.2426 O   0  0  0  0  0  0  0  0  0  0  0  0
   -3.6271   -1.6187   -0.2473 O   0  0  0  0  0  0  0  0  0  0  0  0
   -5.5879    0.3474    0.2447 C   0  0  0  0  0  0  0  0  0  0  0  0
   -4.1144    0.7326    0.1387 C   0  0  0  0  0  0  0  0  0  0  0  0
   -6.4587    1.5542    0.5542 C   0  0  0  0  0  0  0  0  0  0  0  0
   -3.2346   -0.4653   -0.1371 C   0  0  0  0  0  0  0  0  0  0  0  0
   -0.9784   -1.0750   -0.5062 C   0  0  0  0  0  0  0  0  0  0  0  0
    2.7562   -0.2314    0.1495 C   0  0  0  0  0  0  0  0  0  0  0  0
    0.3790   -0.4542   -0.5914 C   0  0  0  0  0  0  0  0  0  0  0  0
    1.4004   -0.8031    0.2062 C   0  0  0  0  0  0  0  0  0  0  0  0
    2.9507    0.9966   -0.4630 C   0  0  0  0  0  0  0  0  0  0  0  0
    3.8129   -0.9313    0.7101 C   0  0  0  0  0  0  0  0  0  0  0  0
    4.2350    1.5386   -0.5163 C   0  0  0  0  0  0  0  0  0  0  0  0
    5.0971   -0.3894    0.6569 C   0  0  0  0  0  0  0  0  0  0  0  0
    5.3081    0.8456    0.0436 C   0  0  0  0  0  0  0  0  0  0  0  0
   -5.9226   -0.1113   -0.6934 H   0  0  0  0  0  0  0  0  0  0  0  0
   -5.7229   -0.4055    1.0305 H   0  0  0  0  0  0  0  0  0  0  0  0
   -3.7824    1.1891    1.0779 H   0  0  0  0  0  0  0  0  0  0  0  0
   -3.9790    1.4528   -0.6760 H   0  0  0  0  0  0  0  0  0  0  0  0
   -7.5093    1.2556    0.6244 H   0  0  0  0  0  0  0  0  0  0  0  0
   -6.1712    2.0116    1.5063 H   0  0  0  0  0  0  0  0  0  0  0  0
   -6.3725    2.3117   -0.2313 H   0  0  0  0  0  0  0  0  0  0  0  0
   -1.2131   -1.5526   -1.4645 H   0  0  0  0  0  0  0  0  0  0  0  0
   -1.0260   -1.8283    0.2890 H   0  0  0  0  0  0  0  0  0  0  0  0
    0.4957    0.2887   -1.3746 H   0  0  0  0  0  0  0  0  0  0  0  0
    1.2452   -1.5753    0.9566 H   0  0  0  0  0  0  0  0  0  0  0  0
    2.1428    1.5810   -0.8919 H   0  0  0  0  0  0  0  0  0  0  0  0
    3.6651   -1.8950    1.1902 H   0  0  0  0  0  0  0  0  0  0  0  0
    4.3991    2.5027   -0.9891 H   0  0  0  0  0  0  0  0  0  0  0  0
    5.9329   -0.9288    1.0929 H   0  0  0  0  0  0  0  0  0  0  0  0
    6.3078    1.2681    0.0033 H   0  0  0  0  0  0  0  0  0  0  0  0
  1  6  1  0  0  0  0
  1  7  1  0  0  0  0
  2  6  2  0  0  0  0
  3  4  1  0  0  0  0
  3  5  1  0  0  0  0
  3 16  1  0  0  0  0
  3 17  1  0  0  0  0
  4  6  1  0  0  0  0
  4 18  1  0  0  0  0
  4 19  1  0  0  0  0
  5 20  1  0  0  0  0
  5 21  1  0  0  0  0
  5 22  1  0  0  0  0
  7  9  1  0  0  0  0
  7 23  1  0  0  0  0
  7 24  1  0  0  0  0
  8 10  1  0  0  0  0
  8 11  2  0  0  0  0
  8 12  1  0  0  0  0
  9 10  2  0  0  0  0
  9 25  1  0  0  0  0
 10 26  1  0  0  0  0
 11 13  1  0  0  0  0
 11 27  1  0  0  0  0
 12 14  2  0  0  0  0
 12 28  1  0  0  0  0
 13 15  2  0  0  0  0
 13 29  1  0  0  0  0
 14 15  1  0  0  0  0
 14 30  1  0  0  0  0
 15 31  1  0  0  0  0
M  END
> <PUBCHEM_COMPOUND_CID>
5355254

> <PUBCHEM_CONFORMER_RMSD>
0.8

> <PUBCHEM_CONFORMER_DIVERSEORDER>
1
57
33
39
47
59
44
30
11
17
58
16
50
27
38
24
32
2
46
28
54
62
35
60
37
26
6
8
52
42
3
45
23
19
61
9
43
41
56
63
31
7
14
25
15
22
13
40
49
34
20
55
48
29
5
53
4
51
21
36
18
10
12

> <PUBCHEM_MMFF94_PARTIAL_CHARGES>
20
1 -0.43
10 -0.18
11 -0.15
12 -0.15
13 -0.15
14 -0.15
15 -0.15
2 -0.57
25 0.15
26 0.15
27 0.15
28 0.15
29 0.15
30 0.15
31 0.15
4 0.06
6 0.66
7 0.42
8 0.03
9 -0.29

> <PUBCHEM_EFFECTIVE_ROTOR_COUNT>
6

> <PUBCHEM_PHARMACOPHORE_FEATURES>
3
1 2 acceptor
1 5 hydrophobe
6 8 11 12 13 14 15 rings

> <PUBCHEM_HEAVY_ATOM_COUNT>
15

> <PUBCHEM_ATOM_DEF_STEREO_COUNT>
0

> <PUBCHEM_ATOM_UDEF_STEREO_COUNT>
0

> <PUBCHEM_BOND_DEF_STEREO_COUNT>
1

> <PUBCHEM_BOND_UDEF_STEREO_COUNT>
0

> <PUBCHEM_ISOTOPIC_ATOM_COUNT>
0

> <PUBCHEM_COMPONENT_COUNT>
1

> <PUBCHEM_CACTVS_TAUTO_COUNT>
1

> <PUBCHEM_CONFORMER_ID>
0051B6F600000001

> <PUBCHEM_MMFF94_ENERGY>
24.4263

> <PUBCHEM_FEATURE_SELFOVERLAP>
15.223

> <PUBCHEM_SHAPE_FINGERPRINT>
100836 57 18272936016170246529
10354089 29 18186803582401544296
10688039 33 17385722469698976012
10912923 1 18334285509061892434
11089746 13 17846488236514227633
117890 112 18343302552708431169
12107183 9 17686895025405930273
12236239 1 18411698798489759082
12596602 18 17894917334572531353
12714333 28 16271924900570262841
13167372 99 18338798909994621041
13533116 47 17458902631028173514
13785724 45 17761771763290692682
1420 363 14707209907134546585
14251718 22 8790881886916902850
14251764 75 15939818676506472300
14252887 29 15864065451803721490
14341114 176 17894914009850969356
15048467 5 18413670205969800153
15183329 4 11743847920057749675
15348495 7 16950855790218379281
17834076 25 18131913754535394121
20281389 69 18410291398343077145
20526848 3 18410860996790055468
20645477 56 18202283598351403487
20767249 213 18342175558012117921
212847 35 18343581845841801064
221357 26 13326854405406447339
23402539 116 17917986200376241831
23402655 69 18339921614819939038
2767999 5 18060415794699510721
300161 21 18341607122821119591
312425 54 16732989695978942409
351380 3 11025800907524411513
3545911 37 18342459222678461535
42788 4 18410854369359579339
465052 167 11602827886429723289
5104073 3 18115019822429958458
542803 24 18410572898551216007
59682541 52 15697445399548465197
7062679 6 18272939289173144873
8272917 22 18410856525855681366

> <PUBCHEM_SHAPE_MULTIPOLES>
296.95
15.73
1.46
0.78
13.72
0.19
-0.02
6.32
-3.06
0.27
0.06
-0.22
0
-1.13

> <PUBCHEM_SHAPE_SELFOVERLAP>
596.508

> <PUBCHEM_SHAPE_VOLUME>
174.7

> <PUBCHEM_COORDINATE_TYPE>
2
5
10

$$$$
