5356544
  -OEChem-11232109173D

 42 41  0     1  0  0  0  0  0999 V2000
    3.7193    0.9510    1.4573 O   0  0  0  0  0  0  0  0  0  0  0  0
    3.0010    0.5702    0.2760 C   0  0  2  0  0  0  0  0  0  0  0  0
    2.1923   -0.7162    0.5771 C   0  0  0  0  0  0  0  0  0  0  0  0
    1.3062   -1.2025   -0.5787 C   0  0  0  0  0  0  0  0  0  0  0  0
    0.5436   -2.4412   -0.1957 C   0  0  0  0  0  0  0  0  0  0  0  0
   -0.7949   -2.5928   -0.1781 C   0  0  0  0  0  0  0  0  0  0  0  0
   -1.7720   -1.5290   -0.6256 C   0  0  0  0  0  0  0  0  0  0  0  0
    4.0530    0.2614   -0.8008 C   0  0  0  0  0  0  0  0  0  0  0  0
    2.0906    1.7300   -0.0658 C   0  0  0  0  0  0  0  0  0  0  0  0
   -2.2422   -0.6531    0.5379 C   0  0  0  0  0  0  0  0  0  0  0  0
   -1.4119   -3.8902    0.2710 C   0  0  0  0  0  0  0  0  0  0  0  0
   -3.2713    0.3431    0.0828 C   0  0  0  0  0  0  0  0  0  0  0  0
   -3.1898    1.6861    0.1322 C   0  0  0  0  0  0  0  0  0  0  0  0
    2.1117    2.4839   -1.1721 C   0  0  0  0  0  0  0  0  0  0  0  0
   -4.3350    2.5389   -0.3442 C   0  0  0  0  0  0  0  0  0  0  0  0
   -2.0005    2.4603    0.6265 C   0  0  0  0  0  0  0  0  0  0  0  0
    2.8844   -1.5137    0.8822 H   0  0  0  0  0  0  0  0  0  0  0  0
    1.5629   -0.5408    1.4619 H   0  0  0  0  0  0  0  0  0  0  0  0
    0.6379   -0.3975   -0.8916 H   0  0  0  0  0  0  0  0  0  0  0  0
    1.9250   -1.4554   -1.4465 H   0  0  0  0  0  0  0  0  0  0  0  0
    1.1627   -3.2807    0.1169 H   0  0  0  0  0  0  0  0  0  0  0  0
   -1.3402   -0.9054   -1.4171 H   0  0  0  0  0  0  0  0  0  0  0  0
   -2.6342   -2.0182   -1.0992 H   0  0  0  0  0  0  0  0  0  0  0  0
    3.6122    0.0217   -1.7731 H   0  0  0  0  0  0  0  0  0  0  0  0
    4.7367    1.1090   -0.9332 H   0  0  0  0  0  0  0  0  0  0  0  0
    4.6832   -0.5820   -0.4936 H   0  0  0  0  0  0  0  0  0  0  0  0
    1.3436    1.9802    0.6860 H   0  0  0  0  0  0  0  0  0  0  0  0
   -2.7090   -1.2808    1.3078 H   0  0  0  0  0  0  0  0  0  0  0  0
   -1.3806   -0.1830    1.0183 H   0  0  0  0  0  0  0  0  0  0  0  0
   -2.0789   -3.7208    1.1224 H   0  0  0  0  0  0  0  0  0  0  0  0
   -1.9925   -4.3365   -0.5428 H   0  0  0  0  0  0  0  0  0  0  0  0
   -0.6598   -4.6231    0.5817 H   0  0  0  0  0  0  0  0  0  0  0  0
    3.0789    1.0574    2.1816 H   0  0  0  0  0  0  0  0  0  0  0  0
   -4.1887   -0.1009   -0.3017 H   0  0  0  0  0  0  0  0  0  0  0  0
    1.3995    3.2943   -1.2888 H   0  0  0  0  0  0  0  0  0  0  0  0
    2.8180    2.3235   -1.9773 H   0  0  0  0  0  0  0  0  0  0  0  0
   -5.1812    1.9414   -0.6994 H   0  0  0  0  0  0  0  0  0  0  0  0
   -4.0120    3.1806   -1.1705 H   0  0  0  0  0  0  0  0  0  0  0  0
   -4.6971    3.1755    0.4699 H   0  0  0  0  0  0  0  0  0  0  0  0
   -1.6351    3.1275   -0.1617 H   0  0  0  0  0  0  0  0  0  0  0  0
   -2.2854    3.0729    1.4885 H   0  0  0  0  0  0  0  0  0  0  0  0
   -1.1593    1.8382    0.9329 H   0  0  0  0  0  0  0  0  0  0  0  0
  1  2  1  0  0  0  0
  1 33  1  0  0  0  0
  2  3  1  0  0  0  0
  2  8  1  0  0  0  0
  2  9  1  0  0  0  0
  3  4  1  0  0  0  0
  3 17  1  0  0  0  0
  3 18  1  0  0  0  0
  4  5  1  0  0  0  0
  4 19  1  0  0  0  0
  4 20  1  0  0  0  0
  5  6  2  0  0  0  0
  5 21  1  0  0  0  0
  6  7  1  0  0  0  0
  6 11  1  0  0  0  0
  7 10  1  0  0  0  0
  7 22  1  0  0  0  0
  7 23  1  0  0  0  0
  8 24  1  0  0  0  0
  8 25  1  0  0  0  0
  8 26  1  0  0  0  0
  9 14  2  0  0  0  0
  9 27  1  0  0  0  0
 10 12  1  0  0  0  0
 10 28  1  0  0  0  0
 10 29  1  0  0  0  0
 11 30  1  0  0  0  0
 11 31  1  0  0  0  0
 11 32  1  0  0  0  0
 12 13  2  0  0  0  0
 12 34  1  0  0  0  0
 13 15  1  0  0  0  0
 13 16  1  0  0  0  0
 14 35  1  0  0  0  0
 14 36  1  0  0  0  0
 15 37  1  0  0  0  0
 15 38  1  0  0  0  0
 15 39  1  0  0  0  0
 16 40  1  0  0  0  0
 16 41  1  0  0  0  0
 16 42  1  0  0  0  0
M  END
> <PUBCHEM_COMPOUND_CID>
5356544

> <PUBCHEM_CONFORMER_RMSD>
0.8

> <PUBCHEM_CONFORMER_DIVERSEORDER>
2
96
107
246
43
300
309
311
214
104
308
84
318
142
134
109
97
202
137
77
180
249
267
108
79
118
286
273
297
90
94
218
31
247
265
190
209
301
130
138
315
59
304
261
39
186
252
121
92
237
281
64
52
115
296
290
207
23
285
157
155
229
280
40
73
11
34
257
312
208
172
213
200
295
294
127
235
259
93
72
314
132
299
150
216
173
88
270
69
105
182
36
268
223
102
89
219
81
198
277
256
7
141
289
238
174
248
144
16
292
66
22
284
303
47
250
164
298
116
228
125
279
263
183
163
168
76
25
38
86
153
258
145
199
46
56
32
65
124
283
91
146
313
293
231
251
18
176
61
234
195
19
276
139
188
307
13
68
136
197
305
193
12
215
45
53
236
44
37
71
211
187
54
271
203
26
154
133
83
254
156
181
103
55
222
15
194
232
244
275
48
266
177
191
241
167
63
60
274
14
226
95
227
225
101
21
161
204
131
171
4
33
288
162
149
169
242
184
185
175
306
143
27
74
151
29
114
41
310
99
106
110
189
119
253
135
302
282
24
291
111
85
221
245
8
166
178
196
192
264
6
17
113
262
217
239
75
165
230
278
317
158
100
62
269
42
82
78
316
272
240
159
98
9
287
201
1
140
120
179
255
123
70
233
50
220
224
112
10
117
58
57
35
20
129
147
30
243
160
170
260
87
28
206
80
148
212
205
49
210
122
67
51
5
128
3
126
152

> <PUBCHEM_MMFF94_PARTIAL_CHARGES>
20
1 -0.68
10 0.14
11 0.14
12 -0.29
13 -0.28
14 -0.3
15 0.14
16 0.14
2 0.42
21 0.15
27 0.15
33 0.4
34 0.15
35 0.15
36 0.15
4 0.14
5 -0.29
6 -0.28
7 0.14
9 -0.29

> <PUBCHEM_EFFECTIVE_ROTOR_COUNT>
7

> <PUBCHEM_PHARMACOPHORE_FEATURES>
6
1 1 acceptor
1 1 donor
1 11 hydrophobe
1 14 hydrophobe
3 13 15 16 hydrophobe
4 6 7 10 12 hydrophobe

> <PUBCHEM_HEAVY_ATOM_COUNT>
16

> <PUBCHEM_ATOM_DEF_STEREO_COUNT>
1

> <PUBCHEM_ATOM_UDEF_STEREO_COUNT>
0

> <PUBCHEM_BOND_DEF_STEREO_COUNT>
1

> <PUBCHEM_BOND_UDEF_STEREO_COUNT>
0

> <PUBCHEM_ISOTOPIC_ATOM_COUNT>
0

> <PUBCHEM_COMPONENT_COUNT>
1

> <PUBCHEM_CACTVS_TAUTO_COUNT>
1

> <PUBCHEM_CONFORMER_ID>
0051BC0000000002

> <PUBCHEM_MMFF94_ENERGY>
19.541

> <PUBCHEM_FEATURE_SELFOVERLAP>
30.451

> <PUBCHEM_SHAPE_FINGERPRINT>
10498660 4 18341890749803448305
10681291 71 18340219491923442041
11370993 70 18340477885656584097
13618510 140 18339927004618903373
138480 1 17473827221443179743
14026960 21 18336278877009995651
14123255 52 18412259515170787419
14178342 30 18265035011787201378
14251757 17 17766608721267696956
17834072 32 18410578374719219749
1798214 55 18341047424131782129
20539926 19 18409738373652752084
20621476 13 17686613546498742525
20671657 1 17981605966411042015
21524375 3 18272090487354989407
22182937 141 18342468066338059531
22749437 52 18412541003048646425
23419403 2 16039098631695475627
23557571 272 18058164110575415248
43658 37 18269827624005729753
474 4 18194399988221403073
6333272 397 18410012105220172291
7832392 63 18409728491296818910

> <PUBCHEM_SHAPE_MULTIPOLES>
323.4
7.32
4.31
0.97
0.07
2.52
0.05
-6.1
0.15
2.77
-0.28
-0.61
-0.29
-0.11

> <PUBCHEM_SHAPE_SELFOVERLAP>
609.034

> <PUBCHEM_SHAPE_VOLUME>
202

> <PUBCHEM_COORDINATE_TYPE>
2
5
10

$$$$
