5356250
  -OEChem-11232109263D

 33 33  0     0  0  0  0  0  0999 V2000
   -2.5471   -1.0855    0.0816 O   0  0  0  0  0  0  0  0  0  0  0  0
   -2.5234    1.2681    0.2510 O   0  0  0  0  0  0  0  0  0  0  0  0
   -1.9095    0.1207   -0.3518 C   0  0  0  0  0  0  0  0  0  0  0  0
   -0.4809    0.1005    0.1169 C   0  0  0  0  0  0  0  0  0  0  0  0
    0.5686    0.2000   -0.7141 C   0  0  0  0  0  0  0  0  0  0  0  0
    1.9811    0.1906   -0.2997 C   0  0  0  0  0  0  0  0  0  0  0  0
   -1.9240   -2.2548   -0.4352 C   0  0  0  0  0  0  0  0  0  0  0  0
   -3.8905    1.4029   -0.1159 C   0  0  0  0  0  0  0  0  0  0  0  0
    2.3231   -0.3331    0.9374 C   0  0  0  0  0  0  0  0  0  0  0  0
    2.9440    0.7054   -1.1538 C   0  0  0  0  0  0  0  0  0  0  0  0
   -2.6632   -3.4736    0.0745 C   0  0  0  0  0  0  0  0  0  0  0  0
   -4.4631    2.6314    0.5583 C   0  0  0  0  0  0  0  0  0  0  0  0
    3.6615   -0.3419    1.3304 C   0  0  0  0  0  0  0  0  0  0  0  0
    4.2823    0.6965   -0.7608 C   0  0  0  0  0  0  0  0  0  0  0  0
    4.6410    0.1728    0.4813 C   0  0  0  0  0  0  0  0  0  0  0  0
   -1.9838    0.2064   -1.4434 H   0  0  0  0  0  0  0  0  0  0  0  0
   -0.3483    0.0265    1.1926 H   0  0  0  0  0  0  0  0  0  0  0  0
    0.3891    0.3032   -1.7820 H   0  0  0  0  0  0  0  0  0  0  0  0
   -1.9531   -2.2347   -1.5303 H   0  0  0  0  0  0  0  0  0  0  0  0
   -0.8836   -2.3370   -0.1059 H   0  0  0  0  0  0  0  0  0  0  0  0
   -3.9720    1.5056   -1.2036 H   0  0  0  0  0  0  0  0  0  0  0  0
   -4.4577    0.5214    0.2017 H   0  0  0  0  0  0  0  0  0  0  0  0
    1.5984   -0.7647    1.6205 H   0  0  0  0  0  0  0  0  0  0  0  0
    2.6803    1.1181   -2.1240 H   0  0  0  0  0  0  0  0  0  0  0  0
   -2.2137   -4.3935   -0.3099 H   0  0  0  0  0  0  0  0  0  0  0  0
   -2.6488   -3.5037    1.1691 H   0  0  0  0  0  0  0  0  0  0  0  0
   -3.7148   -3.4412   -0.2289 H   0  0  0  0  0  0  0  0  0  0  0  0
   -4.3786    2.5485    1.6469 H   0  0  0  0  0  0  0  0  0  0  0  0
   -3.9070    3.5274    0.2633 H   0  0  0  0  0  0  0  0  0  0  0  0
   -5.5158    2.7671    0.2953 H   0  0  0  0  0  0  0  0  0  0  0  0
    3.9423   -0.7544    2.2952 H   0  0  0  0  0  0  0  0  0  0  0  0
    5.0453    1.0973   -1.4218 H   0  0  0  0  0  0  0  0  0  0  0  0
    5.6832    0.1648    0.7867 H   0  0  0  0  0  0  0  0  0  0  0  0
  1  3  1  0  0  0  0
  1  7  1  0  0  0  0
  2  3  1  0  0  0  0
  2  8  1  0  0  0  0
  3  4  1  0  0  0  0
  3 16  1  0  0  0  0
  4  5  2  0  0  0  0
  4 17  1  0  0  0  0
  5  6  1  0  0  0  0
  5 18  1  0  0  0  0
  6  9  2  0  0  0  0
  6 10  1  0  0  0  0
  7 11  1  0  0  0  0
  7 19  1  0  0  0  0
  7 20  1  0  0  0  0
  8 12  1  0  0  0  0
  8 21  1  0  0  0  0
  8 22  1  0  0  0  0
  9 13  1  0  0  0  0
  9 23  1  0  0  0  0
 10 14  2  0  0  0  0
 10 24  1  0  0  0  0
 11 25  1  0  0  0  0
 11 26  1  0  0  0  0
 11 27  1  0  0  0  0
 12 28  1  0  0  0  0
 12 29  1  0  0  0  0
 12 30  1  0  0  0  0
 13 15  2  0  0  0  0
 13 31  1  0  0  0  0
 14 15  1  0  0  0  0
 14 32  1  0  0  0  0
 15 33  1  0  0  0  0
M  END
> <PUBCHEM_COMPOUND_CID>
5356250

> <PUBCHEM_CONFORMER_RMSD>
0.6

> <PUBCHEM_CONFORMER_DIVERSEORDER>
1
36
22
31
17
16
34
14
11
37
26
29
27
15
7
30
19
9
35
18
25
32
33
21
3
13
6
24
12
20
28
4
10
23
8
5
2

> <PUBCHEM_MMFF94_PARTIAL_CHARGES>
20
1 -0.56
10 -0.15
13 -0.15
14 -0.15
15 -0.15
17 0.15
18 0.15
2 -0.56
23 0.15
24 0.15
3 0.7
31 0.15
32 0.15
33 0.15
4 -0.29
5 -0.18
6 0.03
7 0.28
8 0.28
9 -0.15

> <PUBCHEM_EFFECTIVE_ROTOR_COUNT>
6

> <PUBCHEM_PHARMACOPHORE_FEATURES>
3
1 1 acceptor
1 2 acceptor
6 6 9 10 13 14 15 rings

> <PUBCHEM_HEAVY_ATOM_COUNT>
15

> <PUBCHEM_ATOM_DEF_STEREO_COUNT>
0

> <PUBCHEM_ATOM_UDEF_STEREO_COUNT>
0

> <PUBCHEM_BOND_DEF_STEREO_COUNT>
1

> <PUBCHEM_BOND_UDEF_STEREO_COUNT>
0

> <PUBCHEM_ISOTOPIC_ATOM_COUNT>
0

> <PUBCHEM_COMPONENT_COUNT>
1

> <PUBCHEM_CACTVS_TAUTO_COUNT>
1

> <PUBCHEM_CONFORMER_ID>
0051BADA00000001

> <PUBCHEM_MMFF94_ENERGY>
32.6728

> <PUBCHEM_FEATURE_SELFOVERLAP>
15.261

> <PUBCHEM_SHAPE_FINGERPRINT>
11357001 24 18337114583199097891
11796584 16 18272378530064663918
12346177 29 18343011224918605167
12500047 106 18342735204344495282
12788726 201 18191313877904561235
13675066 3 16660364736043884989
13760787 19 18334014995368800014
13760787 5 16660361494171335742
14178342 30 18337096943362082050
14445660 50 18260829293520890396
15279307 12 18260544498297401699
15375358 24 17561078094734352532
15669948 3 18408603699117050823
15806764 133 17488475229028970936
15842332 3 17895484737968909230
16752209 62 18341601676797839895
1741750 31 18342460301063308537
17539 30 18200021993254294311
19026448 5 18186518843407859932
19050596 39 17894909633638094728
19422 9 18187362177411270766
20279233 1 17060618902005050620
20281475 54 18187637033827541002
20645477 56 18412831265591715749
20645477 70 15213559214256589146
20681677 155 18408608046029954322
212916 134 18198892643945199017
21426921 1 18339646758066136551
21618674 53 18113343011173159656
23402539 116 18341884217558754517
23402655 69 18187367640720304772
23503953 91 18333723607539258464
23557571 272 18130794485525540572
23559900 14 18201727211134267646
23598288 3 18117017643948274295
23598291 2 17969230099640909166
495365 180 17274251721980203150
5104073 3 18113613521736907904
573450 72 18335129917086208570
6049 1 17631736109254148946
633830 44 17313683628231313486
7615 1 17968655042106179804

> <PUBCHEM_SHAPE_MULTIPOLES>
296.95
9.64
2.64
1.03
2.21
2.12
-0.06
-4.09
-1.2
-5.8
-0.16
0.97
-0.08
-1.02

> <PUBCHEM_SHAPE_SELFOVERLAP>
590.848

> <PUBCHEM_SHAPE_VOLUME>
176.4

> <PUBCHEM_COORDINATE_TYPE>
2
5
10

$$$$
