5358336
  -OEChem-11232109243D

 25 24  0     1  0  0  0  0  0999 V2000
    3.5028   -0.4568    0.0946 O   0  0  0  0  0  0  0  0  0  0  0  0
   -2.3763   -0.8079   -0.1666 C   0  0  0  0  0  0  0  0  0  0  0  0
   -1.0726   -1.4910    0.2585 C   0  0  0  0  0  0  0  0  0  0  0  0
   -2.4475    0.6618    0.2556 C   0  0  0  0  0  0  0  0  0  0  0  0
    0.1419   -0.8823   -0.3807 C   0  0  0  0  0  0  0  0  0  0  0  0
    2.3607    0.2816   -0.3308 C   0  0  1  0  0  0  0  0  0  0  0  0
    1.1492   -0.3276    0.3102 C   0  0  0  0  0  0  0  0  0  0  0  0
   -3.7840    1.2830   -0.1200 C   0  0  0  0  0  0  0  0  0  0  0  0
    2.5257    1.7392    0.0792 C   0  0  0  0  0  0  0  0  0  0  0  0
   -2.4951   -0.8831   -1.2549 H   0  0  0  0  0  0  0  0  0  0  0  0
   -3.2155   -1.3549    0.2807 H   0  0  0  0  0  0  0  0  0  0  0  0
   -1.1173   -2.5478   -0.0312 H   0  0  0  0  0  0  0  0  0  0  0  0
   -0.9917   -1.4705    1.3522 H   0  0  0  0  0  0  0  0  0  0  0  0
   -2.3052    0.7442    1.3394 H   0  0  0  0  0  0  0  0  0  0  0  0
   -1.6476    1.2376   -0.2228 H   0  0  0  0  0  0  0  0  0  0  0  0
    0.1878   -0.9070   -1.4666 H   0  0  0  0  0  0  0  0  0  0  0  0
    2.3135    0.2123   -1.4228 H   0  0  0  0  0  0  0  0  0  0  0  0
    1.1021   -0.3125    1.3968 H   0  0  0  0  0  0  0  0  0  0  0  0
   -3.8148    2.3322    0.1900 H   0  0  0  0  0  0  0  0  0  0  0  0
   -3.9444    1.2435   -1.2022 H   0  0  0  0  0  0  0  0  0  0  0  0
   -4.6115    0.7600    0.3698 H   0  0  0  0  0  0  0  0  0  0  0  0
    3.4364    2.1564   -0.3643 H   0  0  0  0  0  0  0  0  0  0  0  0
    1.6726    2.3446   -0.2435 H   0  0  0  0  0  0  0  0  0  0  0  0
    2.6338    1.8403    1.1654 H   0  0  0  0  0  0  0  0  0  0  0  0
    3.5987   -0.3433    1.0559 H   0  0  0  0  0  0  0  0  0  0  0  0
  1  6  1  0  0  0  0
  1 25  1  0  0  0  0
  2  3  1  0  0  0  0
  2  4  1  0  0  0  0
  2 10  1  0  0  0  0
  2 11  1  0  0  0  0
  3  5  1  0  0  0  0
  3 12  1  0  0  0  0
  3 13  1  0  0  0  0
  4  8  1  0  0  0  0
  4 14  1  0  0  0  0
  4 15  1  0  0  0  0
  5  7  2  0  0  0  0
  5 16  1  0  0  0  0
  6  7  1  0  0  0  0
  6  9  1  0  0  0  0
  6 17  1  0  0  0  0
  7 18  1  0  0  0  0
  8 19  1  0  0  0  0
  8 20  1  0  0  0  0
  8 21  1  0  0  0  0
  9 22  1  0  0  0  0
  9 23  1  0  0  0  0
  9 24  1  0  0  0  0
M  END
> <PUBCHEM_COMPOUND_CID>
5358336

> <PUBCHEM_CONFORMER_RMSD>
0.6

> <PUBCHEM_CONFORMER_DIVERSEORDER>
1
41
53
21
2
60
56
11
45
37
10
33
16
50
15
49
26
52
59
29
23
20
22
42
54
39
9
40
24
14
6
51
32
47
3
58
34
8
7
44
17
30
48
18
36
57
4
27
55
12
19
25
31
38
28
46
13
5
43
35

> <PUBCHEM_MMFF94_PARTIAL_CHARGES>
8
1 -0.68
16 0.15
18 0.15
25 0.4
3 0.14
5 -0.29
6 0.42
7 -0.29

> <PUBCHEM_EFFECTIVE_ROTOR_COUNT>
4

> <PUBCHEM_PHARMACOPHORE_FEATURES>
4
1 1 acceptor
1 1 donor
1 8 hydrophobe
4 2 3 4 5 hydrophobe

> <PUBCHEM_HEAVY_ATOM_COUNT>
9

> <PUBCHEM_ATOM_DEF_STEREO_COUNT>
0

> <PUBCHEM_ATOM_UDEF_STEREO_COUNT>
1

> <PUBCHEM_BOND_DEF_STEREO_COUNT>
1

> <PUBCHEM_BOND_UDEF_STEREO_COUNT>
0

> <PUBCHEM_ISOTOPIC_ATOM_COUNT>
0

> <PUBCHEM_COMPONENT_COUNT>
1

> <PUBCHEM_CACTVS_TAUTO_COUNT>
1

> <PUBCHEM_CONFORMER_ID>
0051C30000000001

> <PUBCHEM_MMFF94_ENERGY>
0.4702

> <PUBCHEM_FEATURE_SELFOVERLAP>
20.298

> <PUBCHEM_SHAPE_FINGERPRINT>
10149128 111 18343025454356298601
12162725 195 18412260674664270807
12932764 1 17630612429924746606
14325111 11 18411138068981545847
14390081 3 18411418457458170147
15775835 57 18333734602312631653
170605 34 18337111168504658827
19973954 147 18193279808667692672
20281407 28 8646767798632113287
20653085 51 18412271648427200363
20711983 171 18341335573334456308
21028194 46 18411142450053987531
21293036 1 14764338336754349743
21524375 3 18409446947584891655
3248919 1 17532368858390876354

> <PUBCHEM_SHAPE_MULTIPOLES>
179.35
6.24
1.65
0.67
0.6
0.33
0.01
2.72
0.1
0.28
-0.04
0.02
-0.02
0.03

> <PUBCHEM_SHAPE_SELFOVERLAP>
320.746

> <PUBCHEM_SHAPE_VOLUME>
116.9

> <PUBCHEM_COORDINATE_TYPE>
2
5
10

$$$$
