5362832
  -OEChem-11232109463D

 19 18  0     0  0  0  0  0  0999 V2000
    1.8731   -0.2170   -0.7615 S   0  0  0  0  0  0  0  0  0  0  0  0
   -0.6337    0.2565    0.2454 C   0  0  0  0  0  0  0  0  0  0  0  0
    0.8068    0.1203    0.6671 C   0  0  0  0  0  0  0  0  0  0  0  0
   -1.0537    1.6369   -0.1921 C   0  0  0  0  0  0  0  0  0  0  0  0
   -1.5126   -0.7637    0.1951 C   0  0  0  0  0  0  0  0  0  0  0  0
   -2.9355   -0.7215   -0.2610 C   0  0  0  0  0  0  0  0  0  0  0  0
    3.4556   -0.3115    0.1071 C   0  0  0  0  0  0  0  0  0  0  0  0
    0.9074   -0.7105    1.3749 H   0  0  0  0  0  0  0  0  0  0  0  0
    1.1440    1.0258    1.1826 H   0  0  0  0  0  0  0  0  0  0  0  0
   -0.6290    2.3899    0.4816 H   0  0  0  0  0  0  0  0  0  0  0  0
   -2.1342    1.7985   -0.1700 H   0  0  0  0  0  0  0  0  0  0  0  0
   -0.6903    1.8436   -1.2037 H   0  0  0  0  0  0  0  0  0  0  0  0
   -1.1673   -1.7446    0.5178 H   0  0  0  0  0  0  0  0  0  0  0  0
   -3.1615    0.1185   -0.9213 H   0  0  0  0  0  0  0  0  0  0  0  0
   -3.1576   -1.6317   -0.8286 H   0  0  0  0  0  0  0  0  0  0  0  0
   -3.6070   -0.6913    0.6021 H   0  0  0  0  0  0  0  0  0  0  0  0
    3.4389   -1.1192    0.8434 H   0  0  0  0  0  0  0  0  0  0  0  0
    3.6744    0.6368    0.6049 H   0  0  0  0  0  0  0  0  0  0  0  0
    4.2509   -0.5162   -0.6146 H   0  0  0  0  0  0  0  0  0  0  0  0
  1  3  1  0  0  0  0
  1  7  1  0  0  0  0
  2  3  1  0  0  0  0
  2  4  1  0  0  0  0
  2  5  2  0  0  0  0
  3  8  1  0  0  0  0
  3  9  1  0  0  0  0
  4 10  1  0  0  0  0
  4 11  1  0  0  0  0
  4 12  1  0  0  0  0
  5  6  1  0  0  0  0
  5 13  1  0  0  0  0
  6 14  1  0  0  0  0
  6 15  1  0  0  0  0
  6 16  1  0  0  0  0
  7 17  1  0  0  0  0
  7 18  1  0  0  0  0
  7 19  1  0  0  0  0
M  END
> <PUBCHEM_COMPOUND_CID>
5362832

> <PUBCHEM_CONFORMER_RMSD>
0.4

> <PUBCHEM_CONFORMER_DIVERSEORDER>
1
5
11
7
4
10
6
9
3
8
2

> <PUBCHEM_MMFF94_PARTIAL_CHARGES>
8
1 -0.46
13 0.15
2 -0.28
3 0.37
4 0.14
5 -0.29
6 0.14
7 0.23

> <PUBCHEM_EFFECTIVE_ROTOR_COUNT>
2

> <PUBCHEM_PHARMACOPHORE_FEATURES>
3
1 4 hydrophobe
1 6 hydrophobe
1 7 hydrophobe

> <PUBCHEM_HEAVY_ATOM_COUNT>
7

> <PUBCHEM_ATOM_DEF_STEREO_COUNT>
0

> <PUBCHEM_ATOM_UDEF_STEREO_COUNT>
0

> <PUBCHEM_BOND_DEF_STEREO_COUNT>
1

> <PUBCHEM_BOND_UDEF_STEREO_COUNT>
0

> <PUBCHEM_ISOTOPIC_ATOM_COUNT>
0

> <PUBCHEM_COMPONENT_COUNT>
1

> <PUBCHEM_CACTVS_TAUTO_COUNT>
1

> <PUBCHEM_CONFORMER_ID>
0051D49000000001

> <PUBCHEM_MMFF94_ENERGY>
8.0042

> <PUBCHEM_FEATURE_SELFOVERLAP>
15.224

> <PUBCHEM_SHAPE_FINGERPRINT>
11062470 55 18412826901741146366
12897270 3 18334580156877093910
16714656 1 18410577288250392087
20653085 51 14851608790674772807
21040471 1 17905037058820962641
23552423 10 18043249033175618370
23552449 1 18339925913792454572
29004967 10 16773802480537164122
5460574 1 11818991894241754106

> <PUBCHEM_SHAPE_MULTIPOLES>
147.91
4.69
1.19
0.82
2.2
0.49
-0.04
-1.45
-0.36
-0.68
-0.09
0.19
-0.01
0.03

> <PUBCHEM_SHAPE_SELFOVERLAP>
249.435

> <PUBCHEM_SHAPE_VOLUME>
100.6

> <PUBCHEM_COORDINATE_TYPE>
2
5
10

$$$$
