5362819
  -OEChem-11232109173D

 21 20  0     0  0  0  0  0  0999 V2000
    2.2053    0.6488    0.4992 O   0  0  0  0  0  0  0  0  0  0  0  0
    1.3131   -0.8796   -0.9800 O   0  0  0  0  0  0  0  0  0  0  0  0
   -2.2045    0.5291   -0.7783 C   0  0  0  0  0  0  0  0  0  0  0  0
    0.0899   -0.2085    1.0208 C   0  0  0  0  0  0  0  0  0  0  0  0
   -1.9929   -0.8454   -0.2164 C   0  0  0  0  0  0  0  0  0  0  0  0
   -0.9693   -1.1736    0.5861 C   0  0  0  0  0  0  0  0  0  0  0  0
   -3.0603    1.3802    0.1467 C   0  0  0  0  0  0  0  0  0  0  0  0
    1.2489   -0.2173    0.0467 C   0  0  0  0  0  0  0  0  0  0  0  0
    3.3698    0.7663   -0.3247 C   0  0  0  0  0  0  0  0  0  0  0  0
   -1.2558    1.0369   -0.9826 H   0  0  0  0  0  0  0  0  0  0  0  0
   -2.7041    0.4321   -1.7496 H   0  0  0  0  0  0  0  0  0  0  0  0
   -0.2901    0.8127    1.1141 H   0  0  0  0  0  0  0  0  0  0  0  0
    0.4593   -0.5184    2.0049 H   0  0  0  0  0  0  0  0  0  0  0  0
   -2.7244   -1.6077   -0.4708 H   0  0  0  0  0  0  0  0  0  0  0  0
   -0.8939   -2.1963    0.9461 H   0  0  0  0  0  0  0  0  0  0  0  0
   -4.0399    0.9191    0.3136 H   0  0  0  0  0  0  0  0  0  0  0  0
   -2.5841    1.5260    1.1215 H   0  0  0  0  0  0  0  0  0  0  0  0
   -3.2258    2.3673   -0.2970 H   0  0  0  0  0  0  0  0  0  0  0  0
    3.0961    1.1404   -1.3158 H   0  0  0  0  0  0  0  0  0  0  0  0
    3.8778   -0.1997   -0.4022 H   0  0  0  0  0  0  0  0  0  0  0  0
    4.0483    1.4829    0.1458 H   0  0  0  0  0  0  0  0  0  0  0  0
  1  8  1  0  0  0  0
  1  9  1  0  0  0  0
  2  8  2  0  0  0  0
  3  5  1  0  0  0  0
  3  7  1  0  0  0  0
  3 10  1  0  0  0  0
  3 11  1  0  0  0  0
  4  6  1  0  0  0  0
  4  8  1  0  0  0  0
  4 12  1  0  0  0  0
  4 13  1  0  0  0  0
  5  6  2  0  0  0  0
  5 14  1  0  0  0  0
  6 15  1  0  0  0  0
  7 16  1  0  0  0  0
  7 17  1  0  0  0  0
  7 18  1  0  0  0  0
  9 19  1  0  0  0  0
  9 20  1  0  0  0  0
  9 21  1  0  0  0  0
M  END
> <PUBCHEM_COMPOUND_CID>
5362819

> <PUBCHEM_CONFORMER_RMSD>
0.6

> <PUBCHEM_CONFORMER_DIVERSEORDER>
1
35
8
28
20
32
33
10
5
26
31
18
4
30
21
2
27
14
9
3
23
16
34
25
11
12
22
17
29
24
15
19
13
6
7

> <PUBCHEM_MMFF94_PARTIAL_CHARGES>
10
1 -0.43
14 0.15
15 0.15
2 -0.57
3 0.14
4 0.2
5 -0.29
6 -0.29
8 0.66
9 0.28

> <PUBCHEM_EFFECTIVE_ROTOR_COUNT>
4

> <PUBCHEM_PHARMACOPHORE_FEATURES>
2
1 2 acceptor
1 7 hydrophobe

> <PUBCHEM_HEAVY_ATOM_COUNT>
9

> <PUBCHEM_ATOM_DEF_STEREO_COUNT>
0

> <PUBCHEM_ATOM_UDEF_STEREO_COUNT>
0

> <PUBCHEM_BOND_DEF_STEREO_COUNT>
1

> <PUBCHEM_BOND_UDEF_STEREO_COUNT>
0

> <PUBCHEM_ISOTOPIC_ATOM_COUNT>
0

> <PUBCHEM_COMPONENT_COUNT>
1

> <PUBCHEM_CACTVS_TAUTO_COUNT>
1

> <PUBCHEM_CONFORMER_ID>
0051D48300000001

> <PUBCHEM_MMFF94_ENERGY>
5.4247

> <PUBCHEM_FEATURE_SELFOVERLAP>
10.148

> <PUBCHEM_SHAPE_FINGERPRINT>
10149128 111 18260272948990073004
10857977 72 16226346810999900393
12897270 3 17561361798609068888
12932764 1 18130505344164094914
13839132 238 18407760317753052727
14390081 3 18409443700209710329
15310529 11 17917989473463217575
15775835 57 17894344454311849133
19973954 147 18190181384879741780
20211469 16 10879694512496457541
20211469 26 11097860713528389257
20653085 51 18335431157217468296
20711985 344 12966859974746128787
20828058 19 8358246030635486905
21293036 1 16415192416383165885
23402539 116 18263350559656865727
305870 269 17604419691907538219
42627469 27 17676486133736273344

> <PUBCHEM_SHAPE_MULTIPOLES>
173.48
4.94
1.29
0.95
1.57
0.06
-0.01
2.49
-0.46
-0.65
0.05
0.01
-0.08
0.03

> <PUBCHEM_SHAPE_SELFOVERLAP>
319.517

> <PUBCHEM_SHAPE_VOLUME>
109.9

> <PUBCHEM_COORDINATE_TYPE>
2
5
10

$$$$
