5362695
  -OEChem-11232109223D

 29 28  0     0  0  0  0  0  0999 V2000
   -4.7055    0.4412    1.1404 O   0  0  0  0  0  0  0  0  0  0  0  0
   -0.8894   -0.4043   -0.7437 C   0  0  0  0  0  0  0  0  0  0  0  0
    0.2866   -0.7518    0.1713 C   0  0  0  0  0  0  0  0  0  0  0  0
   -2.1699   -0.1736    0.0595 C   0  0  0  0  0  0  0  0  0  0  0  0
    1.5748   -0.9492   -0.6304 C   0  0  0  0  0  0  0  0  0  0  0  0
   -3.3346    0.2056   -0.8494 C   0  0  0  0  0  0  0  0  0  0  0  0
    2.7345   -1.2580    0.2713 C   0  0  0  0  0  0  0  0  0  0  0  0
    3.5422   -0.3239    0.7946 C   0  0  0  0  0  0  0  0  0  0  0  0
    3.3872    1.1469    0.5440 C   0  0  0  0  0  0  0  0  0  0  0  0
   -4.6053    0.4783   -0.0812 C   0  0  0  0  0  0  0  0  0  0  0  0
    4.1794    1.5889   -0.6765 C   0  0  0  0  0  0  0  0  0  0  0  0
   -1.0473   -1.2152   -1.4650 H   0  0  0  0  0  0  0  0  0  0  0  0
   -0.6509    0.4988   -1.3187 H   0  0  0  0  0  0  0  0  0  0  0  0
    0.0559   -1.6666    0.7321 H   0  0  0  0  0  0  0  0  0  0  0  0
    0.4190    0.0483    0.9099 H   0  0  0  0  0  0  0  0  0  0  0  0
   -2.4216   -1.0790    0.6257 H   0  0  0  0  0  0  0  0  0  0  0  0
   -2.0038    0.6223    0.7964 H   0  0  0  0  0  0  0  0  0  0  0  0
    1.7709   -0.0713   -1.2549 H   0  0  0  0  0  0  0  0  0  0  0  0
    1.4517   -1.7861   -1.3292 H   0  0  0  0  0  0  0  0  0  0  0  0
   -3.0973    1.1088   -1.4217 H   0  0  0  0  0  0  0  0  0  0  0  0
   -3.5440   -0.6030   -1.5579 H   0  0  0  0  0  0  0  0  0  0  0  0
    2.9140   -2.3019    0.5142 H   0  0  0  0  0  0  0  0  0  0  0  0
    4.3650   -0.6391    1.4307 H   0  0  0  0  0  0  0  0  0  0  0  0
    3.7482    1.6875    1.4272 H   0  0  0  0  0  0  0  0  0  0  0  0
    2.3375    1.4354    0.4290 H   0  0  0  0  0  0  0  0  0  0  0  0
   -5.4797    0.7317   -0.7052 H   0  0  0  0  0  0  0  0  0  0  0  0
    3.8320    1.0930   -1.5885 H   0  0  0  0  0  0  0  0  0  0  0  0
    4.0750    2.6691   -0.8212 H   0  0  0  0  0  0  0  0  0  0  0  0
    5.2456    1.3682   -0.5561 H   0  0  0  0  0  0  0  0  0  0  0  0
  1 10  2  0  0  0  0
  2  3  1  0  0  0  0
  2  4  1  0  0  0  0
  2 12  1  0  0  0  0
  2 13  1  0  0  0  0
  3  5  1  0  0  0  0
  3 14  1  0  0  0  0
  3 15  1  0  0  0  0
  4  6  1  0  0  0  0
  4 16  1  0  0  0  0
  4 17  1  0  0  0  0
  5  7  1  0  0  0  0
  5 18  1  0  0  0  0
  5 19  1  0  0  0  0
  6 10  1  0  0  0  0
  6 20  1  0  0  0  0
  6 21  1  0  0  0  0
  7  8  2  0  0  0  0
  7 22  1  0  0  0  0
  8  9  1  0  0  0  0
  8 23  1  0  0  0  0
  9 11  1  0  0  0  0
  9 24  1  0  0  0  0
  9 25  1  0  0  0  0
 10 26  1  0  0  0  0
 11 27  1  0  0  0  0
 11 28  1  0  0  0  0
 11 29  1  0  0  0  0
M  END
> <PUBCHEM_COMPOUND_CID>
5362695

> <PUBCHEM_CONFORMER_RMSD>
0.8

> <PUBCHEM_CONFORMER_DIVERSEORDER>
2
86
91
15
111
89
95
36
77
46
112
6
83
65
114
4
57
99
38
58
106
33
12
31
90
1
92
113
50
116
104
9
28
94
97
117
3
87
59
39
47
108
13
54
52
35
81
115
7
61
37
93
22
100
85
16
102
78
41
105
103
24
27
55
14
96
71
64
29
80
60
17
110
69
42
19
43
20
66
98
18
53
10
45
5
8
88
48
49
74
26
72
25
107
62
101
11
75
30
109
79
82
32
84
51
68
73
34
44
56
67
76
70
23
63
21
40

> <PUBCHEM_MMFF94_PARTIAL_CHARGES>
10
1 -0.57
10 0.45
22 0.15
23 0.15
26 0.06
5 0.14
6 0.06
7 -0.29
8 -0.29
9 0.14

> <PUBCHEM_EFFECTIVE_ROTOR_COUNT>
7

> <PUBCHEM_PHARMACOPHORE_FEATURES>
4
1 1 acceptor
1 11 hydrophobe
3 2 4 6 hydrophobe
3 3 5 7 hydrophobe

> <PUBCHEM_HEAVY_ATOM_COUNT>
11

> <PUBCHEM_ATOM_DEF_STEREO_COUNT>
0

> <PUBCHEM_ATOM_UDEF_STEREO_COUNT>
0

> <PUBCHEM_BOND_DEF_STEREO_COUNT>
1

> <PUBCHEM_BOND_UDEF_STEREO_COUNT>
0

> <PUBCHEM_ISOTOPIC_ATOM_COUNT>
0

> <PUBCHEM_COMPONENT_COUNT>
1

> <PUBCHEM_CACTVS_TAUTO_COUNT>
2

> <PUBCHEM_CONFORMER_ID>
0051D40700000002

> <PUBCHEM_MMFF94_ENERGY>
1.3047

> <PUBCHEM_FEATURE_SELFOVERLAP>
20.297

> <PUBCHEM_SHAPE_FINGERPRINT>
100836 57 18334580187485398476
13237642 15 17676492769624276057
13675066 3 16950278481951728503
14123238 8 18410291428418033863
14123260 362 17632588157919990907
14251764 75 17828501488973608260
14252887 29 14490466457454215768
14445660 50 18411135857347980943
177051 138 12685087064611915954
17834072 33 18131059472755590455
18186145 218 18411976932045412086
20621476 66 17899138489236549476
20621476 91 17023758960532580563
20828058 21 15769769174247534535
212847 35 18273211989293974688
21501925 9 11097848601704686278
22485316 2 8646479726369429479
22959321 60 18188492492185596410
22959321 94 13479131310949297888
23402655 69 17846777442637624044
23532345 1 18335977580442891071
23596394 208 13110972984957080317
32948 21 13110976296471551411
42 15 15285353998791922027
449060 50 18259985985081743479
449060 62 18411698803211922892
4990 188 13973962112319555558

> <PUBCHEM_SHAPE_MULTIPOLES>
220.51
10.41
1.32
0.99
7.11
0.21
-0.04
4.12
-1.61
-1.73
0.1
0.2
0.07
-0.4

> <PUBCHEM_SHAPE_SELFOVERLAP>
399.563

> <PUBCHEM_SHAPE_VOLUME>
140.4

> <PUBCHEM_COORDINATE_TYPE>
2
5
10

$$$$
