5362561
  -OEChem-11232108493D

 26 25  0     1  0  0  0  0  0999 V2000
   -3.2056   -0.9470   -0.3282 O   0  0  0  0  0  0  0  0  0  0  0  0
   -1.1080    1.2157    1.3607 O   0  0  0  0  0  0  0  0  0  0  0  0
   -0.8392   -0.4771   -0.3454 C   0  0  1  0  0  0  0  0  0  0  0  0
    0.5372   -0.9790    0.1200 C   0  0  0  0  0  0  0  0  0  0  0  0
    1.7237   -0.1087   -0.3151 C   0  0  0  0  0  0  0  0  0  0  0  0
    3.0692   -0.6018    0.2184 C   0  0  0  0  0  0  0  0  0  0  0  0
   -1.9513   -1.3926    0.1746 C   0  0  0  0  0  0  0  0  0  0  0  0
   -1.0907    0.9422    0.1604 C   0  0  0  0  0  0  0  0  0  0  0  0
    4.1968    0.3454   -0.1633 C   0  0  0  0  0  0  0  0  0  0  0  0
   -1.3321    2.0029   -0.8821 C   0  0  0  0  0  0  0  0  0  0  0  0
   -0.8718   -0.4558   -1.4418 H   0  0  0  0  0  0  0  0  0  0  0  0
    0.6915   -1.9979   -0.2575 H   0  0  0  0  0  0  0  0  0  0  0  0
    0.5447   -1.0496    1.2159 H   0  0  0  0  0  0  0  0  0  0  0  0
    1.7569   -0.0701   -1.4109 H   0  0  0  0  0  0  0  0  0  0  0  0
    1.5700    0.9197    0.0325 H   0  0  0  0  0  0  0  0  0  0  0  0
    3.2813   -1.6012   -0.1781 H   0  0  0  0  0  0  0  0  0  0  0  0
    3.0276   -0.6870    1.3104 H   0  0  0  0  0  0  0  0  0  0  0  0
   -1.7988   -2.4192   -0.1734 H   0  0  0  0  0  0  0  0  0  0  0  0
   -2.0019   -1.4064    1.2688 H   0  0  0  0  0  0  0  0  0  0  0  0
    5.1509   -0.0268    0.2229 H   0  0  0  0  0  0  0  0  0  0  0  0
    4.2821    0.4351   -1.2509 H   0  0  0  0  0  0  0  0  0  0  0  0
    4.0288    1.3441    0.2523 H   0  0  0  0  0  0  0  0  0  0  0  0
   -2.2251    1.7526   -1.4599 H   0  0  0  0  0  0  0  0  0  0  0  0
   -0.4630    2.0740   -1.5407 H   0  0  0  0  0  0  0  0  0  0  0  0
   -1.4851    2.9699   -0.3953 H   0  0  0  0  0  0  0  0  0  0  0  0
   -3.4243   -0.1099    0.1149 H   0  0  0  0  0  0  0  0  0  0  0  0
  1  7  1  0  0  0  0
  1 26  1  0  0  0  0
  2  8  2  0  0  0  0
  3  4  1  0  0  0  0
  3  7  1  0  0  0  0
  3  8  1  0  0  0  0
  3 11  1  0  0  0  0
  4  5  1  0  0  0  0
  4 12  1  0  0  0  0
  4 13  1  0  0  0  0
  5  6  1  0  0  0  0
  5 14  1  0  0  0  0
  5 15  1  0  0  0  0
  6  9  1  0  0  0  0
  6 16  1  0  0  0  0
  6 17  1  0  0  0  0
  7 18  1  0  0  0  0
  7 19  1  0  0  0  0
  8 10  1  0  0  0  0
  9 20  1  0  0  0  0
  9 21  1  0  0  0  0
  9 22  1  0  0  0  0
 10 23  1  0  0  0  0
 10 24  1  0  0  0  0
 10 25  1  0  0  0  0
M  END
> <PUBCHEM_COMPOUND_CID>
5362561

> <PUBCHEM_CONFORMER_RMSD>
0.6

> <PUBCHEM_CONFORMER_DIVERSEORDER>
1
149
134
131
122
8
162
146
140
28
147
68
136
142
144
42
152
160
14
112
153
108
155
80
92
148
157
70
151
110
86
51
32
128
91
18
111
45
124
123
23
139
78
20
31
143
133
158
56
94
62
84
150
69
93
103
138
116
4
154
39
54
71
64
105
3
79
127
145
53
121
100
82
50
126
125
156
106
141
76
61
83
114
34
2
77
90
113
26
81
72
118
15
35
30
85
129
12
107
17
49
10
137
87
66
89
159
101
74
97
58
7
6
13
11
99
117
44
135
43
52
19
55
65
59
161
104
47
95
57
46
130
67
24
5
40
163
120
21
109
27
75
9
25
98
38
37
132
115
22
33
48
36
41
29
63
96
16
102
60
88
73
119

> <PUBCHEM_MMFF94_PARTIAL_CHARGES>
7
1 -0.68
10 0.06
2 -0.57
26 0.4
3 0.06
7 0.28
8 0.45

> <PUBCHEM_EFFECTIVE_ROTOR_COUNT>
5

> <PUBCHEM_PHARMACOPHORE_FEATURES>
5
1 1 acceptor
1 1 donor
1 2 acceptor
1 9 hydrophobe
4 3 4 5 6 hydrophobe

> <PUBCHEM_HEAVY_ATOM_COUNT>
10

> <PUBCHEM_ATOM_DEF_STEREO_COUNT>
0

> <PUBCHEM_ATOM_UDEF_STEREO_COUNT>
1

> <PUBCHEM_BOND_DEF_STEREO_COUNT>
0

> <PUBCHEM_BOND_UDEF_STEREO_COUNT>
0

> <PUBCHEM_ISOTOPIC_ATOM_COUNT>
0

> <PUBCHEM_COMPONENT_COUNT>
1

> <PUBCHEM_CACTVS_TAUTO_COUNT>
3

> <PUBCHEM_CONFORMER_ID>
0051D38100000001

> <PUBCHEM_MMFF94_ENERGY>
7.3882

> <PUBCHEM_FEATURE_SELFOVERLAP>
25.372

> <PUBCHEM_SHAPE_FINGERPRINT>
11062470 55 16225759744383274942
12932764 1 18188783721449812834
13024252 1 16587747525205184825
14325111 11 18409729526500033718
15310529 11 16200158642653821542
15775835 57 18262803960701715552
23402539 116 18340477958607633918
3248919 1 17845366644781336238
5084963 1 18410293610050352186

> <PUBCHEM_SHAPE_MULTIPOLES>
194.06
5.46
1.68
0.86
5.87
0.6
0.17
-0.56
-0.34
-1.32
-0.16
-0.26
0.27
-0.08

> <PUBCHEM_SHAPE_SELFOVERLAP>
353.268

> <PUBCHEM_SHAPE_VOLUME>
124.5

> <PUBCHEM_COORDINATE_TYPE>
2
5
10

$$$$
