5362567
  -OEChem-11232109133D

 53 52  0     1  0  0  0  0  0999 V2000
    0.3764   -1.6955   -0.0581 O   0  0  0  0  0  0  0  0  0  0  0  0
    1.5185    0.8081    0.3545 O   0  0  0  0  0  0  0  0  0  0  0  0
   -2.3138   -0.8433    0.0234 O   0  0  0  0  0  0  0  0  0  0  0  0
    1.8923   -3.5010   -0.1924 O   0  0  0  0  0  0  0  0  0  0  0  0
    2.1846    3.0517    0.0329 O   0  0  0  0  0  0  0  0  0  0  0  0
   -4.2277    0.5274   -0.1713 O   0  0  0  0  0  0  0  0  0  0  0  0
   -0.0663   -0.5630   -0.8097 C   0  0  0  0  0  0  0  0  0  0  0  0
    1.1063    0.3999   -0.9433 C   0  0  0  0  0  0  0  0  0  0  0  0
   -1.2371    0.0829   -0.0777 C   0  0  0  0  0  0  0  0  0  0  0  0
    0.9315   -2.7118   -0.8981 C   0  0  1  0  0  0  0  0  0  0  0  0
    2.6238    1.7201    0.3117 C   0  0  1  0  0  0  0  0  0  0  0  0
   -3.4443   -0.2865    0.7050 C   0  0  1  0  0  0  0  0  0  0  0  0
   -0.2303   -3.5988   -1.3275 C   0  0  0  0  0  0  0  0  0  0  0  0
    3.2765    1.6834    1.6878 C   0  0  0  0  0  0  0  0  0  0  0  0
   -4.2860   -1.4613    1.1869 C   0  0  0  0  0  0  0  0  0  0  0  0
    3.0146   -2.7476    0.2463 C   0  0  0  0  0  0  0  0  0  0  0  0
    3.2349    3.9014   -0.4082 C   0  0  0  0  0  0  0  0  0  0  0  0
   -5.1076    1.4018    0.5220 C   0  0  0  0  0  0  0  0  0  0  0  0
    3.9694   -3.6662    0.9785 C   0  0  0  0  0  0  0  0  0  0  0  0
    2.6732    5.2814   -0.6761 C   0  0  0  0  0  0  0  0  0  0  0  0
   -5.8888    2.2168   -0.4866 C   0  0  0  0  0  0  0  0  0  0  0  0
   -0.4127   -0.8711   -1.8038 H   0  0  0  0  0  0  0  0  0  0  0  0
    1.9485   -0.0884   -1.4453 H   0  0  0  0  0  0  0  0  0  0  0  0
    0.8093    1.2775   -1.5291 H   0  0  0  0  0  0  0  0  0  0  0  0
   -0.9378    0.3661    0.9384 H   0  0  0  0  0  0  0  0  0  0  0  0
   -1.5725    0.9782   -0.6138 H   0  0  0  0  0  0  0  0  0  0  0  0
    1.4222   -2.2910   -1.7844 H   0  0  0  0  0  0  0  0  0  0  0  0
    3.3465    1.3811   -0.4419 H   0  0  0  0  0  0  0  0  0  0  0  0
   -3.0997    0.2926    1.5717 H   0  0  0  0  0  0  0  0  0  0  0  0
   -0.7331   -4.0217   -0.4500 H   0  0  0  0  0  0  0  0  0  0  0  0
    0.1296   -4.4392   -1.9298 H   0  0  0  0  0  0  0  0  0  0  0  0
   -0.9826   -3.0499   -1.9007 H   0  0  0  0  0  0  0  0  0  0  0  0
    2.5939    2.0823    2.4468 H   0  0  0  0  0  0  0  0  0  0  0  0
    4.1928    2.2783    1.7267 H   0  0  0  0  0  0  0  0  0  0  0  0
    3.5184    0.6545    1.9743 H   0  0  0  0  0  0  0  0  0  0  0  0
   -4.6980   -2.0132    0.3343 H   0  0  0  0  0  0  0  0  0  0  0  0
   -5.1277   -1.1400    1.8059 H   0  0  0  0  0  0  0  0  0  0  0  0
   -3.6768   -2.1628    1.7666 H   0  0  0  0  0  0  0  0  0  0  0  0
    2.6923   -1.9494    0.9233 H   0  0  0  0  0  0  0  0  0  0  0  0
    3.5183   -2.2992   -0.6171 H   0  0  0  0  0  0  0  0  0  0  0  0
    3.6720    3.4989   -1.3288 H   0  0  0  0  0  0  0  0  0  0  0  0
    4.0176    3.9768    0.3523 H   0  0  0  0  0  0  0  0  0  0  0  0
   -4.5280    2.0732    1.1653 H   0  0  0  0  0  0  0  0  0  0  0  0
   -5.8086    0.8349    1.1416 H   0  0  0  0  0  0  0  0  0  0  0  0
    3.4751   -4.1301    1.8384 H   0  0  0  0  0  0  0  0  0  0  0  0
    4.2999   -4.4797    0.3242 H   0  0  0  0  0  0  0  0  0  0  0  0
    4.8475   -3.1173    1.3301 H   0  0  0  0  0  0  0  0  0  0  0  0
    1.8826    5.2358   -1.4325 H   0  0  0  0  0  0  0  0  0  0  0  0
    2.2218    5.6966    0.2311 H   0  0  0  0  0  0  0  0  0  0  0  0
    3.4555    5.9617   -1.0242 H   0  0  0  0  0  0  0  0  0  0  0  0
   -5.2109    2.7930   -1.1248 H   0  0  0  0  0  0  0  0  0  0  0  0
   -6.4671    1.5617   -1.1465 H   0  0  0  0  0  0  0  0  0  0  0  0
   -6.5737    2.9069    0.0141 H   0  0  0  0  0  0  0  0  0  0  0  0
  1  7  1  0  0  0  0
  1 10  1  0  0  0  0
  2  8  1  0  0  0  0
  2 11  1  0  0  0  0
  3  9  1  0  0  0  0
  3 12  1  0  0  0  0
  4 10  1  0  0  0  0
  4 16  1  0  0  0  0
  5 11  1  0  0  0  0
  5 17  1  0  0  0  0
  6 12  1  0  0  0  0
  6 18  1  0  0  0  0
  7  8  1  0  0  0  0
  7  9  1  0  0  0  0
  7 22  1  0  0  0  0
  8 23  1  0  0  0  0
  8 24  1  0  0  0  0
  9 25  1  0  0  0  0
  9 26  1  0  0  0  0
 10 13  1  0  0  0  0
 10 27  1  0  0  0  0
 11 14  1  0  0  0  0
 11 28  1  0  0  0  0
 12 15  1  0  0  0  0
 12 29  1  0  0  0  0
 13 30  1  0  0  0  0
 13 31  1  0  0  0  0
 13 32  1  0  0  0  0
 14 33  1  0  0  0  0
 14 34  1  0  0  0  0
 14 35  1  0  0  0  0
 15 36  1  0  0  0  0
 15 37  1  0  0  0  0
 15 38  1  0  0  0  0
 16 19  1  0  0  0  0
 16 39  1  0  0  0  0
 16 40  1  0  0  0  0
 17 20  1  0  0  0  0
 17 41  1  0  0  0  0
 17 42  1  0  0  0  0
 18 21  1  0  0  0  0
 18 43  1  0  0  0  0
 18 44  1  0  0  0  0
 19 45  1  0  0  0  0
 19 46  1  0  0  0  0
 19 47  1  0  0  0  0
 20 48  1  0  0  0  0
 20 49  1  0  0  0  0
 20 50  1  0  0  0  0
 21 51  1  0  0  0  0
 21 52  1  0  0  0  0
 21 53  1  0  0  0  0
M  END
> <PUBCHEM_COMPOUND_CID>
5362567

> <PUBCHEM_CONFORMER_RMSD>
1.2

> <PUBCHEM_CONFORMER_DIVERSEORDER>
1
26
74
119
137
126
96
97
82
154
60
73
67
78
91
151
43
107
105
140
31
113
145
72
144
112
34
115
47
149
33
130
27
103
19
99
14
20
139
111
142
88
87
125
23
21
138
100
156
124
39
106
79
133
76
117
141
101
129
4
123
54
127
9
155
25
13
116
45
148
153
37
147
11
75
102
61
80
22
95
7
134
128
41
93
146
62
52
104
114
65
58
84
38
77
32
94
131
89
64
50
59
35
143
71
18
6
122
70
40
69
85
110
44
81
15
152
63
135
42
150
83
90
12
66
29
55
136
68
92
36
8
121
108
28
53
118
3
2
98
56
48
51
5
46
24
17
120
132
86
16
30
57
109
49
10

> <PUBCHEM_MMFF94_PARTIAL_CHARGES>
15
1 -0.56
10 0.56
11 0.56
12 0.56
16 0.28
17 0.28
18 0.28
2 -0.56
3 -0.56
4 -0.56
5 -0.56
6 -0.56
7 0.28
8 0.28
9 0.28

> <PUBCHEM_EFFECTIVE_ROTOR_COUNT>
14

> <PUBCHEM_PHARMACOPHORE_FEATURES>
6
1 1 acceptor
1 2 acceptor
1 3 acceptor
1 4 acceptor
1 5 acceptor
1 6 acceptor

> <PUBCHEM_HEAVY_ATOM_COUNT>
21

> <PUBCHEM_ATOM_DEF_STEREO_COUNT>
0

> <PUBCHEM_ATOM_UDEF_STEREO_COUNT>
3

> <PUBCHEM_BOND_DEF_STEREO_COUNT>
0

> <PUBCHEM_BOND_UDEF_STEREO_COUNT>
0

> <PUBCHEM_ISOTOPIC_ATOM_COUNT>
0

> <PUBCHEM_COMPONENT_COUNT>
1

> <PUBCHEM_CACTVS_TAUTO_COUNT>
1

> <PUBCHEM_CONFORMER_ID>
0051D38700000001

> <PUBCHEM_MMFF94_ENERGY>
40.2558

> <PUBCHEM_FEATURE_SELFOVERLAP>
30.573

> <PUBCHEM_SHAPE_FINGERPRINT>
12173636 292 17764581410514487620
12549972 3 17677918793477277969
12788726 201 17326344224893863915
13134695 92 18264488382060619302
14790565 3 18048883188934363172
18785283 64 18410576171384899747
23419403 2 18043514032921422174
23558518 356 18052809540873401638
23559900 14 18337675217990605561
495365 180 18272083860504820539
5104073 3 18338531755293197451
67856867 119 18200865189738980251
69474 34 18195799683223993914
7808743 9 17764595712592689456
81228 2 17046279341648937366
9981440 41 18193839464671504953

> <PUBCHEM_SHAPE_MULTIPOLES>
396.95
9.87
6.73
1.17
16.27
3.61
-0.16
5.58
-2.67
-10.5
1.47
-0.32
-0.3
-0.32

> <PUBCHEM_SHAPE_SELFOVERLAP>
733.646

> <PUBCHEM_SHAPE_VOLUME>
250.1

> <PUBCHEM_COORDINATE_TYPE>
2
5
10

$$$$
