5362760
  -OEChem-11232109483D

 32 31  0     0  0  0  0  0  0999 V2000
   -6.0308   -1.5796   -0.1250 O   0  0  0  0  0  0  0  0  0  0  0  0
    3.0749    0.5178   -0.2645 C   0  0  0  0  0  0  0  0  0  0  0  0
    4.1197   -0.4793    0.2414 C   0  0  0  0  0  0  0  0  0  0  0  0
    1.6895    0.2096    0.3120 C   0  0  0  0  0  0  0  0  0  0  0  0
    5.4971   -0.1918   -0.3555 C   0  0  0  0  0  0  0  0  0  0  0  0
    0.6043    1.1665   -0.1915 C   0  0  0  0  0  0  0  0  0  0  0  0
    6.5310   -1.2006    0.1186 C   0  0  0  0  0  0  0  0  0  0  0  0
   -0.7392    0.9059    0.4275 C   0  0  0  0  0  0  0  0  0  0  0  0
   -1.8319    0.5792   -0.2788 C   0  0  0  0  0  0  0  0  0  0  0  0
   -3.1211    0.3326    0.3280 C   0  0  0  0  0  0  0  0  0  0  0  0
   -4.2125    0.0059   -0.3814 C   0  0  0  0  0  0  0  0  0  0  0  0
   -5.5808   -0.2662    0.1692 C   0  0  0  0  0  0  0  0  0  0  0  0
    3.3701    1.5366    0.0137 H   0  0  0  0  0  0  0  0  0  0  0  0
    3.0300    0.4807   -1.3597 H   0  0  0  0  0  0  0  0  0  0  0  0
    4.1750   -0.4318    1.3358 H   0  0  0  0  0  0  0  0  0  0  0  0
    3.8116   -1.4983   -0.0227 H   0  0  0  0  0  0  0  0  0  0  0  0
    1.4095   -0.8199    0.0541 H   0  0  0  0  0  0  0  0  0  0  0  0
    1.7387    0.2572    1.4076 H   0  0  0  0  0  0  0  0  0  0  0  0
    5.8214    0.8169   -0.0744 H   0  0  0  0  0  0  0  0  0  0  0  0
    5.4429   -0.2220   -1.4500 H   0  0  0  0  0  0  0  0  0  0  0  0
    0.8924    2.1978    0.0462 H   0  0  0  0  0  0  0  0  0  0  0  0
    0.5462    1.1027   -1.2851 H   0  0  0  0  0  0  0  0  0  0  0  0
    6.2522   -2.2169   -0.1772 H   0  0  0  0  0  0  0  0  0  0  0  0
    6.6326   -1.1754    1.2083 H   0  0  0  0  0  0  0  0  0  0  0  0
    7.5086   -0.9756   -0.3191 H   0  0  0  0  0  0  0  0  0  0  0  0
   -0.8014    1.0034    1.5091 H   0  0  0  0  0  0  0  0  0  0  0  0
   -1.7633    0.4883   -1.3600 H   0  0  0  0  0  0  0  0  0  0  0  0
   -3.1941    0.4182    1.4090 H   0  0  0  0  0  0  0  0  0  0  0  0
   -4.1306   -0.0776   -1.4641 H   0  0  0  0  0  0  0  0  0  0  0  0
   -6.2937    0.4385   -0.2704 H   0  0  0  0  0  0  0  0  0  0  0  0
   -5.6111   -0.1312    1.2556 H   0  0  0  0  0  0  0  0  0  0  0  0
   -5.3848   -2.2026    0.2499 H   0  0  0  0  0  0  0  0  0  0  0  0
  1 12  1  0  0  0  0
  1 32  1  0  0  0  0
  2  3  1  0  0  0  0
  2  4  1  0  0  0  0
  2 13  1  0  0  0  0
  2 14  1  0  0  0  0
  3  5  1  0  0  0  0
  3 15  1  0  0  0  0
  3 16  1  0  0  0  0
  4  6  1  0  0  0  0
  4 17  1  0  0  0  0
  4 18  1  0  0  0  0
  5  7  1  0  0  0  0
  5 19  1  0  0  0  0
  5 20  1  0  0  0  0
  6  8  1  0  0  0  0
  6 21  1  0  0  0  0
  6 22  1  0  0  0  0
  7 23  1  0  0  0  0
  7 24  1  0  0  0  0
  7 25  1  0  0  0  0
  8  9  2  0  0  0  0
  8 26  1  0  0  0  0
  9 10  1  0  0  0  0
  9 27  1  0  0  0  0
 10 11  2  0  0  0  0
 10 28  1  0  0  0  0
 11 12  1  0  0  0  0
 11 29  1  0  0  0  0
 12 30  1  0  0  0  0
 12 31  1  0  0  0  0
M  END
> <PUBCHEM_COMPOUND_CID>
5362760

> <PUBCHEM_CONFORMER_RMSD>
0.8

> <PUBCHEM_CONFORMER_DIVERSEORDER>
1
61
34
19
38
54
11
3
36
15
47
60
44
64
42
27
4
58
6
28
63
31
2
7
59
17
18
22
41
23
51
29
39
14
32
10
20
57
30
48
13
56
55
37
45
33
26
49
53
9
5
50
62
43
52
25
16
40
12
21
35
8
46
24

> <PUBCHEM_MMFF94_PARTIAL_CHARGES>
12
1 -0.68
10 -0.15
11 -0.29
12 0.42
26 0.15
27 0.15
28 0.15
29 0.15
32 0.4
6 0.14
8 -0.29
9 -0.15

> <PUBCHEM_EFFECTIVE_ROTOR_COUNT>
7

> <PUBCHEM_PHARMACOPHORE_FEATURES>
5
1 1 acceptor
1 1 donor
1 7 hydrophobe
3 2 3 5 hydrophobe
3 4 6 8 hydrophobe

> <PUBCHEM_HEAVY_ATOM_COUNT>
12

> <PUBCHEM_ATOM_DEF_STEREO_COUNT>
0

> <PUBCHEM_ATOM_UDEF_STEREO_COUNT>
0

> <PUBCHEM_BOND_DEF_STEREO_COUNT>
2

> <PUBCHEM_BOND_UDEF_STEREO_COUNT>
0

> <PUBCHEM_ISOTOPIC_ATOM_COUNT>
0

> <PUBCHEM_COMPONENT_COUNT>
1

> <PUBCHEM_CACTVS_TAUTO_COUNT>
1

> <PUBCHEM_CONFORMER_ID>
0051D44800000001

> <PUBCHEM_MMFF94_ENERGY>
0.9164

> <PUBCHEM_FEATURE_SELFOVERLAP>
25.384

> <PUBCHEM_SHAPE_FINGERPRINT>
100836 57 9511457836186634784
10354089 29 12895352196883375514
117890 112 9943811088152552047
12714333 28 12901546844945970044
13288520 33 18410293605992976125
13690532 89 18410012147932345001
13964095 4 17967809419518560189
1420 363 18131915957584643694
14251718 22 18040716965544923332
14350574 20 18333449854444253956
15048467 5 9295287240058366702
15242439 84 15574719105440672840
15501527 16 10159700192219244315
15501527 24 17530686506779032672
17834072 33 18409168848009474644
17834072 8 14996004349846806527
17834076 25 11025799799390953548
187816 3 16370446643966572280
20281389 69 10231757777583172886
20526848 3 8574437538680269079
20605781 2 8790885181330814256
20621476 21 17605006982205991875
20645477 56 8214141850328643569
20767249 13 18409449180709318768
20767249 213 9079112263036816668
21130983 4 11887948865853428754
212847 35 8574712386748769300
21426921 1 18338516318437566269
22224240 67 15267335219568779500
22896161 15 18411981382338158872
23035841 295 18410012130414969811
23402539 116 18334856082566472509
23402655 69 12685085990864940681
351380 3 18412259536514053894
42788 4 18335421257613412428
465052 167 18272654549994551846
57483677 66 18410008836264652971
7062679 6 9367349253433350842

> <PUBCHEM_SHAPE_MULTIPOLES>
241.09
16.9
1.16
0.69
2.47
0.2
0
9.27
0.61
-0.33
0.01
0.03
-0.03
-0.22

> <PUBCHEM_SHAPE_SELFOVERLAP>
436.515

> <PUBCHEM_SHAPE_VOLUME>
154.3

> <PUBCHEM_COORDINATE_TYPE>
2
5
10

$$$$
