5362623
  -OEChem-11232108553D

 24 23  0     0  0  0  0  0  0999 V2000
    1.8329    0.2447    0.4089 O   0  0  0  0  0  0  0  0  0  0  0  0
    0.6971   -1.2376   -0.9450 O   0  0  0  0  0  0  0  0  0  0  0  0
   -0.3701   -0.2619    1.0193 C   0  0  0  0  0  0  0  0  0  0  0  0
   -2.5783    0.6722   -0.7963 C   0  0  0  0  0  0  0  0  0  0  0  0
   -1.5660   -1.0923    0.6692 C   0  0  0  0  0  0  0  0  0  0  0  0
   -2.5512   -0.6764   -0.1405 C   0  0  0  0  0  0  0  0  0  0  0  0
    0.7523   -0.5039    0.0326 C   0  0  0  0  0  0  0  0  0  0  0  0
    2.9823    0.1367   -0.4371 C   0  0  0  0  0  0  0  0  0  0  0  0
   -3.2820    1.6991    0.0772 C   0  0  0  0  0  0  0  0  0  0  0  0
    4.0829    1.0194    0.1115 C   0  0  0  0  0  0  0  0  0  0  0  0
   -0.5985    0.8074    1.0447 H   0  0  0  0  0  0  0  0  0  0  0  0
   -0.0253   -0.5532    2.0179 H   0  0  0  0  0  0  0  0  0  0  0  0
   -1.5721    1.0232   -1.0493 H   0  0  0  0  0  0  0  0  0  0  0  0
   -3.1096    0.5815   -1.7512 H   0  0  0  0  0  0  0  0  0  0  0  0
   -1.6283   -2.0881    1.1004 H   0  0  0  0  0  0  0  0  0  0  0  0
   -3.3897   -1.3414   -0.3297 H   0  0  0  0  0  0  0  0  0  0  0  0
    3.3209   -0.9050   -0.4617 H   0  0  0  0  0  0  0  0  0  0  0  0
    2.7206    0.4585   -1.4513 H   0  0  0  0  0  0  0  0  0  0  0  0
   -4.3130    1.3960    0.2900 H   0  0  0  0  0  0  0  0  0  0  0  0
   -2.7669    1.8416    1.0325 H   0  0  0  0  0  0  0  0  0  0  0  0
   -3.3159    2.6669   -0.4336 H   0  0  0  0  0  0  0  0  0  0  0  0
    4.9789    0.9610   -0.5127 H   0  0  0  0  0  0  0  0  0  0  0  0
    3.7527    2.0624    0.1593 H   0  0  0  0  0  0  0  0  0  0  0  0
    4.3431    0.7214    1.1325 H   0  0  0  0  0  0  0  0  0  0  0  0
  1  7  1  0  0  0  0
  1  8  1  0  0  0  0
  2  7  2  0  0  0  0
  3  5  1  0  0  0  0
  3  7  1  0  0  0  0
  3 11  1  0  0  0  0
  3 12  1  0  0  0  0
  4  6  1  0  0  0  0
  4  9  1  0  0  0  0
  4 13  1  0  0  0  0
  4 14  1  0  0  0  0
  5  6  2  0  0  0  0
  5 15  1  0  0  0  0
  6 16  1  0  0  0  0
  8 10  1  0  0  0  0
  8 17  1  0  0  0  0
  8 18  1  0  0  0  0
  9 19  1  0  0  0  0
  9 20  1  0  0  0  0
  9 21  1  0  0  0  0
 10 22  1  0  0  0  0
 10 23  1  0  0  0  0
 10 24  1  0  0  0  0
M  END
> <PUBCHEM_COMPOUND_CID>
5362623

> <PUBCHEM_CONFORMER_RMSD>
0.6

> <PUBCHEM_CONFORMER_DIVERSEORDER>
1
173
133
135
99
131
51
134
117
55
59
63
46
175
24
94
137
130
62
153
31
114
169
149
27
20
86
146
112
132
171
66
56
150
163
61
71
159
15
166
125
41
168
142
164
176
23
140
124
109
116
147
128
3
80
170
69
16
145
95
161
9
26
106
157
121
156
115
33
54
126
34
74
101
104
4
158
28
136
102
100
172
160
47
18
60
113
45
7
25
39
44
151
122
91
118
12
111
152
14
21
174
79
144
29
155
65
49
57
10
37
22
119
77
36
87
83
50
35
52
11
139
30
5
148
85
2
6
48
67
76
75
90
162
165
107
110
42
92
97
40
105
108
8
103
13
43
93
17
58
38
123
73
70
19
89
84
167
120
78
96
154
72
127
81
64
138
82
88
141
98
143
68
53
32
129

> <PUBCHEM_MMFF94_PARTIAL_CHARGES>
10
1 -0.43
15 0.15
16 0.15
2 -0.57
3 0.2
4 0.14
5 -0.29
6 -0.29
7 0.66
8 0.28

> <PUBCHEM_EFFECTIVE_ROTOR_COUNT>
5

> <PUBCHEM_PHARMACOPHORE_FEATURES>
2
1 2 acceptor
1 9 hydrophobe

> <PUBCHEM_HEAVY_ATOM_COUNT>
10

> <PUBCHEM_ATOM_DEF_STEREO_COUNT>
0

> <PUBCHEM_ATOM_UDEF_STEREO_COUNT>
0

> <PUBCHEM_BOND_DEF_STEREO_COUNT>
1

> <PUBCHEM_BOND_UDEF_STEREO_COUNT>
0

> <PUBCHEM_ISOTOPIC_ATOM_COUNT>
0

> <PUBCHEM_COMPONENT_COUNT>
1

> <PUBCHEM_CACTVS_TAUTO_COUNT>
1

> <PUBCHEM_CONFORMER_ID>
0051D3BF00000001

> <PUBCHEM_MMFF94_ENERGY>
3.135

> <PUBCHEM_FEATURE_SELFOVERLAP>
10.148

> <PUBCHEM_SHAPE_FINGERPRINT>
10149128 111 18260271823814084485
11769659 78 10879993549404303508
12162725 195 18040999600073211228
12897270 3 17632855313270027577
12932764 1 18201434821965520002
13839132 238 18334576789691247311
14123260 362 18261128360562709620
14325111 11 18410292523407918930
14390081 3 18334574642091470081
15775835 57 17749104448808589277
177051 138 9655573015525057864
17841504 4 11098152066671528471
18342897 55 17418091027057909828
20211469 26 8142076542756240489
20281407 28 10015867578410232708
20645477 56 18408327695886444673
20653085 51 18336274435639219611
20711983 171 18187086169774732908
20711985 344 13254521890670170579
20828058 19 8934416511969417249
21256008 23 13623533450443823982
21293036 1 17489586804934732686
22485316 2 10592049042007194028
23402539 116 18188483705052189415
23500284 214 18260836964390678937
305870 269 17458899323855797907
3248919 1 17095244765158023538
42627469 27 17095522881222155104
528716 315 14908184182846020893

> <PUBCHEM_SHAPE_MULTIPOLES>
194.06
6.47
1.4
0.92
4.13
0.3
-0.01
3.44
-0.33
-0.92
0.01
-0.11
-0.11
0.25

> <PUBCHEM_SHAPE_SELFOVERLAP>
357.306

> <PUBCHEM_SHAPE_VOLUME>
122.8

> <PUBCHEM_COORDINATE_TYPE>
2
5
10

$$$$
