5362580
  -OEChem-11232109263D

 26 25  0     0  0  0  0  0  0999 V2000
    4.3478   -0.3845   -0.5597 O   0  0  0  0  0  0  0  0  0  0  0  0
   -1.2592    0.3220   -0.2899 C   0  0  0  0  0  0  0  0  0  0  0  0
   -2.6637    0.2228    0.3110 C   0  0  0  0  0  0  0  0  0  0  0  0
   -0.2420    0.7830    0.7565 C   0  0  0  0  0  0  0  0  0  0  0  0
   -3.7097   -0.3012   -0.6753 C   0  0  0  0  0  0  0  0  0  0  0  0
    1.1327    0.9090    0.1609 C   0  0  0  0  0  0  0  0  0  0  0  0
   -5.0918   -0.4683   -0.0630 C   0  0  0  0  0  0  0  0  0  0  0  0
    2.0955   -0.0285    0.1523 C   0  0  0  0  0  0  0  0  0  0  0  0
    2.0077   -1.4215    0.6901 C   0  0  0  0  0  0  0  0  0  0  0  0
    3.3828    0.3672   -0.4828 C   0  0  0  0  0  0  0  0  0  0  0  0
   -0.9643   -0.6566   -0.6890 H   0  0  0  0  0  0  0  0  0  0  0  0
   -1.2734    1.0220   -1.1347 H   0  0  0  0  0  0  0  0  0  0  0  0
   -2.9744    1.2097    0.6757 H   0  0  0  0  0  0  0  0  0  0  0  0
   -2.6348   -0.4423    1.1833 H   0  0  0  0  0  0  0  0  0  0  0  0
   -0.2360    0.0949    1.6092 H   0  0  0  0  0  0  0  0  0  0  0  0
   -0.5351    1.7600    1.1603 H   0  0  0  0  0  0  0  0  0  0  0  0
   -3.3824   -1.2700   -1.0712 H   0  0  0  0  0  0  0  0  0  0  0  0
   -3.7783    0.3836   -1.5288 H   0  0  0  0  0  0  0  0  0  0  0  0
    1.3296    1.8796   -0.2928 H   0  0  0  0  0  0  0  0  0  0  0  0
   -5.7970   -0.8425   -0.8115 H   0  0  0  0  0  0  0  0  0  0  0  0
   -5.0670   -1.1799    0.7683 H   0  0  0  0  0  0  0  0  0  0  0  0
   -5.4690    0.4875    0.3141 H   0  0  0  0  0  0  0  0  0  0  0  0
    1.0049   -1.6764    1.0431 H   0  0  0  0  0  0  0  0  0  0  0  0
    2.7003   -1.5490    1.5284 H   0  0  0  0  0  0  0  0  0  0  0  0
    2.2680   -2.1478   -0.0873 H   0  0  0  0  0  0  0  0  0  0  0  0
    3.4294    1.3922   -0.8879 H   0  0  0  0  0  0  0  0  0  0  0  0
  1 10  2  0  0  0  0
  2  3  1  0  0  0  0
  2  4  1  0  0  0  0
  2 11  1  0  0  0  0
  2 12  1  0  0  0  0
  3  5  1  0  0  0  0
  3 13  1  0  0  0  0
  3 14  1  0  0  0  0
  4  6  1  0  0  0  0
  4 15  1  0  0  0  0
  4 16  1  0  0  0  0
  5  7  1  0  0  0  0
  5 17  1  0  0  0  0
  5 18  1  0  0  0  0
  6  8  2  0  0  0  0
  6 19  1  0  0  0  0
  7 20  1  0  0  0  0
  7 21  1  0  0  0  0
  7 22  1  0  0  0  0
  8  9  1  0  0  0  0
  8 10  1  0  0  0  0
  9 23  1  0  0  0  0
  9 24  1  0  0  0  0
  9 25  1  0  0  0  0
 10 26  1  0  0  0  0
M  END
> <PUBCHEM_COMPOUND_CID>
5362580

> <PUBCHEM_CONFORMER_RMSD>
0.6

> <PUBCHEM_CONFORMER_DIVERSEORDER>
1
50
60
49
3
54
23
55
58
27
71
14
69
37
67
31
30
28
16
11
44
24
57
12
52
32
21
51
46
53
4
9
56
59
8
35
34
7
26
36
64
19
66
41
43
65
2
48
45
68
13
18
20
62
47
61
38
15
33
5
6
70
17
10
63
25
39
42
29
22
40

> <PUBCHEM_MMFF94_PARTIAL_CHARGES>
8
1 -0.57
10 0.5
19 0.15
26 0.06
4 0.14
6 -0.29
8 -0.12
9 0.14

> <PUBCHEM_EFFECTIVE_ROTOR_COUNT>
5

> <PUBCHEM_PHARMACOPHORE_FEATURES>
4
1 1 acceptor
1 7 hydrophobe
1 9 hydrophobe
5 2 3 4 5 6 hydrophobe

> <PUBCHEM_HEAVY_ATOM_COUNT>
10

> <PUBCHEM_ATOM_DEF_STEREO_COUNT>
0

> <PUBCHEM_ATOM_UDEF_STEREO_COUNT>
0

> <PUBCHEM_BOND_DEF_STEREO_COUNT>
1

> <PUBCHEM_BOND_UDEF_STEREO_COUNT>
0

> <PUBCHEM_ISOTOPIC_ATOM_COUNT>
0

> <PUBCHEM_COMPONENT_COUNT>
1

> <PUBCHEM_CACTVS_TAUTO_COUNT>
1

> <PUBCHEM_CONFORMER_ID>
0051D39400000001

> <PUBCHEM_MMFF94_ENERGY>
1.519

> <PUBCHEM_FEATURE_SELFOVERLAP>
20.297

> <PUBCHEM_SHAPE_FINGERPRINT>
11062470 55 14562530686678617165
114248 4 17458064884829922471
12251169 10 11527945655609940521
12616999 72 18040154006980734794
12932764 1 18200859734671766805
13922767 16 9943804486682439994
14123238 8 16298105397888421519
14252887 29 17418382389012523118
14897335 6 12107784112203412929
15477762 27 18261111872277705468
177051 138 17346595296526051277
17802600 8 9151176437366075391
17834072 33 17632576105862326568
18342897 14 11024106551394585698
20201158 50 18113902653949054499
20279233 1 16370730313829437321
20645477 70 17604141524056009507
20724930 37 9583523113710110601
21119208 17 17894351089814502679
21293036 1 16588022420429277941
22169311 14 13686291405045858279
22485316 2 18131627893985630693
23402539 116 15357696426671524202
23402655 69 18040709239057078533
42 15 15195570108624785981

> <PUBCHEM_SHAPE_MULTIPOLES>
199.93
9.14
1.04
0.83
5.98
0.21
0.02
2.02
-2.05
-0.47
0.18
-0.06
0.01
-0.25

> <PUBCHEM_SHAPE_SELFOVERLAP>
363.867

> <PUBCHEM_SHAPE_VOLUME>
127.8

> <PUBCHEM_COORDINATE_TYPE>
2
5
10

$$$$
