5362814
  -OEChem-11232108453D

 20 19  0     0  0  0  0  0  0999 V2000
   -2.8879    0.9941   -0.4354 O   0  0  0  0  0  0  0  0  0  0  0  0
   -0.4550   -0.4276   -0.6177 C   0  0  0  0  0  0  0  0  0  0  0  0
   -1.3918   -0.6337    0.5688 C   0  0  0  0  0  0  0  0  0  0  0  0
    0.7778   -1.2734   -0.4905 C   0  0  0  0  0  0  0  0  0  0  0  0
    2.0812    0.5002    0.7105 C   0  0  0  0  0  0  0  0  0  0  0  0
    1.9080   -0.8597    0.1015 C   0  0  0  0  0  0  0  0  0  0  0  0
    2.6136    1.4987   -0.3055 C   0  0  0  0  0  0  0  0  0  0  0  0
   -2.6459    0.2013    0.4683 C   0  0  0  0  0  0  0  0  0  0  0  0
   -0.2109    0.6343   -0.7308 H   0  0  0  0  0  0  0  0  0  0  0  0
   -0.9668   -0.7039   -1.5485 H   0  0  0  0  0  0  0  0  0  0  0  0
   -0.9011   -0.3700    1.5120 H   0  0  0  0  0  0  0  0  0  0  0  0
   -1.7031   -1.6827    0.6333 H   0  0  0  0  0  0  0  0  0  0  0  0
    0.7373   -2.2803   -0.8971 H   0  0  0  0  0  0  0  0  0  0  0  0
    1.1502    0.8758    1.1471 H   0  0  0  0  0  0  0  0  0  0  0  0
    2.7882    0.4178    1.5447 H   0  0  0  0  0  0  0  0  0  0  0  0
    2.7572   -1.5366    0.1401 H   0  0  0  0  0  0  0  0  0  0  0  0
    3.5786    1.1739   -0.7096 H   0  0  0  0  0  0  0  0  0  0  0  0
    1.9232    1.6328   -1.1444 H   0  0  0  0  0  0  0  0  0  0  0  0
    2.7600    2.4749    0.1681 H   0  0  0  0  0  0  0  0  0  0  0  0
   -3.3654    0.0595    1.2933 H   0  0  0  0  0  0  0  0  0  0  0  0
  1  8  2  0  0  0  0
  2  3  1  0  0  0  0
  2  4  1  0  0  0  0
  2  9  1  0  0  0  0
  2 10  1  0  0  0  0
  3  8  1  0  0  0  0
  3 11  1  0  0  0  0
  3 12  1  0  0  0  0
  4  6  2  0  0  0  0
  4 13  1  0  0  0  0
  5  6  1  0  0  0  0
  5  7  1  0  0  0  0
  5 14  1  0  0  0  0
  5 15  1  0  0  0  0
  6 16  1  0  0  0  0
  7 17  1  0  0  0  0
  7 18  1  0  0  0  0
  7 19  1  0  0  0  0
  8 20  1  0  0  0  0
M  END
> <PUBCHEM_COMPOUND_CID>
5362814

> <PUBCHEM_CONFORMER_RMSD>
0.6

> <PUBCHEM_CONFORMER_DIVERSEORDER>
3
29
22
13
6
24
27
25
10
15
11
28
20
21
4
2
5
18
19
26
23
1
8
9
14
7
17
12
16

> <PUBCHEM_MMFF94_PARTIAL_CHARGES>
10
1 -0.57
13 0.15
16 0.15
2 0.14
20 0.06
3 0.06
4 -0.29
5 0.14
6 -0.29
8 0.45

> <PUBCHEM_EFFECTIVE_ROTOR_COUNT>
4

> <PUBCHEM_PHARMACOPHORE_FEATURES>
2
1 1 acceptor
1 7 hydrophobe

> <PUBCHEM_HEAVY_ATOM_COUNT>
8

> <PUBCHEM_ATOM_DEF_STEREO_COUNT>
0

> <PUBCHEM_ATOM_UDEF_STEREO_COUNT>
0

> <PUBCHEM_BOND_DEF_STEREO_COUNT>
1

> <PUBCHEM_BOND_UDEF_STEREO_COUNT>
0

> <PUBCHEM_ISOTOPIC_ATOM_COUNT>
0

> <PUBCHEM_COMPONENT_COUNT>
1

> <PUBCHEM_CACTVS_TAUTO_COUNT>
2

> <PUBCHEM_CONFORMER_ID>
0051D47E00000003

> <PUBCHEM_MMFF94_ENERGY>
1.8806

> <PUBCHEM_FEATURE_SELFOVERLAP>
10.148

> <PUBCHEM_SHAPE_FINGERPRINT>
10149128 76 18412261735574200209
10857977 72 17168155541595769099
12897270 3 12535345692616327321
12932741 1 18337405858795240807
12932764 1 18188218610880136211
14390081 3 18342458149089566353
15775835 57 18059856202872431576
19973954 147 18340211765261458793
20211469 16 8645953064985381032
21028194 46 18200314445576283562
21040471 1 18129939113071898122

> <PUBCHEM_SHAPE_MULTIPOLES>
158.77
4.55
1.4
0.85
1.51
0.11
-0.03
2.1
-0.22
-0.64
0.19
0
0
0.1

> <PUBCHEM_SHAPE_SELFOVERLAP>
285.9

> <PUBCHEM_SHAPE_VOLUME>
101.7

> <PUBCHEM_COORDINATE_TYPE>
2
5
10

$$$$
