5362583
  -OEChem-11232109433D

 36 35  0     0  0  0  0  0  0999 V2000
   -2.0987    0.8873   -0.3617 O   0  0  0  0  0  0  0  0  0  0  0  0
   -1.0695    0.9714    1.7019 O   0  0  0  0  0  0  0  0  0  0  0  0
    2.5897   -1.0094   -0.8828 C   0  0  0  0  0  0  0  0  0  0  0  0
    2.3928    0.0430    0.2151 C   0  0  0  0  0  0  0  0  0  0  0  0
    1.7525   -2.2843   -0.7329 C   0  0  0  0  0  0  0  0  0  0  0  0
    3.3107    1.2565    0.0654 C   0  0  0  0  0  0  0  0  0  0  0  0
    0.2757   -2.0253   -0.7951 C   0  0  0  0  0  0  0  0  0  0  0  0
   -2.0419   -1.9891    0.1613 C   0  0  0  0  0  0  0  0  0  0  0  0
    3.1412    2.2268    1.2246 C   0  0  0  0  0  0  0  0  0  0  0  0
   -0.5624   -2.2394    0.2298 C   0  0  0  0  0  0  0  0  0  0  0  0
   -2.4870   -0.8973    1.1319 C   0  0  0  0  0  0  0  0  0  0  0  0
   -1.7993    0.4245    0.8851 C   0  0  0  0  0  0  0  0  0  0  0  0
   -1.4876    2.1306   -0.7199 C   0  0  0  0  0  0  0  0  0  0  0  0
   -1.9164    2.5048   -2.1227 C   0  0  0  0  0  0  0  0  0  0  0  0
    3.6475   -1.3008   -0.9044 H   0  0  0  0  0  0  0  0  0  0  0  0
    2.3773   -0.5499   -1.8568 H   0  0  0  0  0  0  0  0  0  0  0  0
    1.3521    0.3849    0.2147 H   0  0  0  0  0  0  0  0  0  0  0  0
    2.5717   -0.4275    1.1900 H   0  0  0  0  0  0  0  0  0  0  0  0
    2.0214   -2.7824    0.2066 H   0  0  0  0  0  0  0  0  0  0  0  0
    2.0137   -2.9794   -1.5398 H   0  0  0  0  0  0  0  0  0  0  0  0
    4.3559    0.9290    0.0227 H   0  0  0  0  0  0  0  0  0  0  0  0
    3.0924    1.7718   -0.8769 H   0  0  0  0  0  0  0  0  0  0  0  0
   -0.1146   -1.6451   -1.7359 H   0  0  0  0  0  0  0  0  0  0  0  0
   -2.5641   -2.9215    0.4059 H   0  0  0  0  0  0  0  0  0  0  0  0
   -2.3412   -1.7228   -0.8599 H   0  0  0  0  0  0  0  0  0  0  0  0
    3.3880    1.7475    2.1774 H   0  0  0  0  0  0  0  0  0  0  0  0
    3.8028    3.0891    1.0966 H   0  0  0  0  0  0  0  0  0  0  0  0
    2.1112    2.5935    1.2806 H   0  0  0  0  0  0  0  0  0  0  0  0
   -0.1729   -2.6214    1.1701 H   0  0  0  0  0  0  0  0  0  0  0  0
   -2.2758   -1.2008    2.1647 H   0  0  0  0  0  0  0  0  0  0  0  0
   -3.5693   -0.7395    1.0650 H   0  0  0  0  0  0  0  0  0  0  0  0
   -0.3976    2.0269   -0.6824 H   0  0  0  0  0  0  0  0  0  0  0  0
   -1.8031    2.9090   -0.0163 H   0  0  0  0  0  0  0  0  0  0  0  0
   -1.4661    3.4529   -2.4296 H   0  0  0  0  0  0  0  0  0  0  0  0
   -1.6229    1.7267   -2.8352 H   0  0  0  0  0  0  0  0  0  0  0  0
   -3.0060    2.5951   -2.1814 H   0  0  0  0  0  0  0  0  0  0  0  0
  1 12  1  0  0  0  0
  1 13  1  0  0  0  0
  2 12  2  0  0  0  0
  3  4  1  0  0  0  0
  3  5  1  0  0  0  0
  3 15  1  0  0  0  0
  3 16  1  0  0  0  0
  4  6  1  0  0  0  0
  4 17  1  0  0  0  0
  4 18  1  0  0  0  0
  5  7  1  0  0  0  0
  5 19  1  0  0  0  0
  5 20  1  0  0  0  0
  6  9  1  0  0  0  0
  6 21  1  0  0  0  0
  6 22  1  0  0  0  0
  7 10  2  0  0  0  0
  7 23  1  0  0  0  0
  8 10  1  0  0  0  0
  8 11  1  0  0  0  0
  8 24  1  0  0  0  0
  8 25  1  0  0  0  0
  9 26  1  0  0  0  0
  9 27  1  0  0  0  0
  9 28  1  0  0  0  0
 10 29  1  0  0  0  0
 11 12  1  0  0  0  0
 11 30  1  0  0  0  0
 11 31  1  0  0  0  0
 13 14  1  0  0  0  0
 13 32  1  0  0  0  0
 13 33  1  0  0  0  0
 14 34  1  0  0  0  0
 14 35  1  0  0  0  0
 14 36  1  0  0  0  0
M  END
> <PUBCHEM_COMPOUND_CID>
5362583

> <PUBCHEM_CONFORMER_RMSD>
0.8

> <PUBCHEM_CONFORMER_DIVERSEORDER>
2
158
208
44
213
214
174
74
367
363
18
242
444
197
15
79
221
338
329
382
293
172
20
370
148
171
19
108
268
426
65
106
149
77
8
121
168
50
445
285
194
94
4
1
128
205
40
435
236
112
252
360
373
217
164
62
223
73
296
141
190
244
265
219
227
284
204
162
28
393
356
237
126
262
441
325
61
383
231
361
474
283
187
24
458
344
448
212
72
399
287
299
45
431
218
409
235
222
465
119
173
133
256
122
34
234
101
29
430
420
365
118
22
381
437
16
282
331
473
264
64
67
104
442
457
453
239
416
386
137
294
455
263
228
13
424
378
292
289
339
55
451
340
125
258
347
48
233
379
314
353
456
215
401
84
402
443
371
142
42
390
27
343
109
275
369
432
429
117
318
388
59
85
157
319
183
113
274
43
254
398
238
68
11
206
160
245
39
364
261
63
185
116
3
269
199
439
438
251
397
321
111
276
306
286
124
422
403
146
78
140
6
354
36
99
272
346
446
52
21
203
5
355
9
37
313
271
90
196
7
46
139
460
54
315
165
358
418
92
60
17
291
152
454
58
216
138
41
249
177
290
351
224
302
192
366
273
400
304
300
12
469
143
31
69
307
407
349
345
414
49
464
10
32
207
461
334
281
317
255
250
182
301
145
362
350
180
211
120
130
169
467
247
201
200
468
151
341
114
267
436
243
434
76
391
312
472
134
394
191
240
93
277
253
320
411
89
225
100
298
110
53
179
156
447
202
220
30
270
450
372
384
428
131
266
38
51
75
91
260
337
425
348
66
408
396
323
357
303
14
412
150
229
35
415
359
376
257
71
417
115
248
70
57
198
462
81
335
155
410
466
56
327
96
87
132
147
309
423
352
163
463
387
459
184
449
161
288
395
107
135
186
230
278
279
470
259
105
97
166
33
377
82
232
368
103
86
23
311
80
25
427
47
188
226
375
129
297
316
241
95
83
332
295
452
181
389
210
144
170
330
433
176
471
127
167
209
328
333
305
153
26
326
102
154
123
336
98
178
136
413
195
246
421
342
175
405
419
404
280
392
193
380
324
322
308
385
189
440
406
374
159
310
88

> <PUBCHEM_MMFF94_PARTIAL_CHARGES>
11
1 -0.43
10 -0.29
11 0.06
12 0.66
13 0.28
2 -0.57
23 0.15
29 0.15
5 0.14
7 -0.29
8 0.14

> <PUBCHEM_EFFECTIVE_ROTOR_COUNT>
9

> <PUBCHEM_PHARMACOPHORE_FEATURES>
3
1 2 acceptor
1 9 hydrophobe
5 3 4 5 6 7 hydrophobe

> <PUBCHEM_HEAVY_ATOM_COUNT>
14

> <PUBCHEM_ATOM_DEF_STEREO_COUNT>
0

> <PUBCHEM_ATOM_UDEF_STEREO_COUNT>
0

> <PUBCHEM_BOND_DEF_STEREO_COUNT>
1

> <PUBCHEM_BOND_UDEF_STEREO_COUNT>
0

> <PUBCHEM_ISOTOPIC_ATOM_COUNT>
0

> <PUBCHEM_COMPONENT_COUNT>
1

> <PUBCHEM_CACTVS_TAUTO_COUNT>
1

> <PUBCHEM_CONFORMER_ID>
0051D39700000002

> <PUBCHEM_MMFF94_ENERGY>
0.8473

> <PUBCHEM_FEATURE_SELFOVERLAP>
15.223

> <PUBCHEM_SHAPE_FINGERPRINT>
13294875 104 17391622286021650402
14614273 12 18341045332445701138
18219364 16 17904219034927828403
220403 375 18336814317207515814
232386 152 11929863842125523825
23419403 2 16336348812909699101
238 59 18125137360714285276
2803657 2 13864464579708616253
3524813 1 17901119524497113244
8050 44 18341894091071609818

> <PUBCHEM_SHAPE_MULTIPOLES>
276.37
5.08
3.5
1.56
3.6
0.29
-0.19
1.97
0.83
-0.41
-1.21
-0.58
1
2.09

> <PUBCHEM_SHAPE_SELFOVERLAP>
507.859

> <PUBCHEM_SHAPE_VOLUME>
175.1

> <PUBCHEM_COORDINATE_TYPE>
2
5
10

$$$$
