5362564
  -OEChem-11232108523D

 28 28  0     1  0  0  0  0  0999 V2000
   -0.8246   -1.7559    0.0875 S   0  0  0  0  0  0  0  0  0  0  0  0
   -0.2539    0.8525   -0.4628 N   0  0  0  0  0  0  0  0  0  0  0  0
    1.6457   -0.5842    0.0223 C   0  0  1  0  0  0  0  0  0  0  0  0
    0.2734   -0.5108   -0.6323 C   0  0  1  0  0  0  0  0  0  0  0  0
   -2.1110   -0.5244    0.3826 C   0  0  1  0  0  0  0  0  0  0  0  0
    2.6199    0.3836   -0.6781 C   0  0  0  0  0  0  0  0  0  0  0  0
   -1.4380    0.8011    0.0659 C   0  0  0  0  0  0  0  0  0  0  0  0
    1.5279   -0.2971    1.5226 C   0  0  0  0  0  0  0  0  0  0  0  0
   -3.3012   -0.7733   -0.5287 C   0  0  0  0  0  0  0  0  0  0  0  0
    4.0396    0.3306   -0.1320 C   0  0  0  0  0  0  0  0  0  0  0  0
   -2.1779    2.0777    0.3530 C   0  0  0  0  0  0  0  0  0  0  0  0
    2.0487   -1.5995   -0.0986 H   0  0  0  0  0  0  0  0  0  0  0  0
    0.3556   -0.7218   -1.7046 H   0  0  0  0  0  0  0  0  0  0  0  0
   -2.4092   -0.5418    1.4348 H   0  0  0  0  0  0  0  0  0  0  0  0
    2.2643    1.4180   -0.6011 H   0  0  0  0  0  0  0  0  0  0  0  0
    2.6547    0.1411   -1.7476 H   0  0  0  0  0  0  0  0  0  0  0  0
    1.1949    0.7273    1.7205 H   0  0  0  0  0  0  0  0  0  0  0  0
    2.5017   -0.4148    2.0102 H   0  0  0  0  0  0  0  0  0  0  0  0
    0.8596   -0.9821    2.0506 H   0  0  0  0  0  0  0  0  0  0  0  0
   -3.0352   -0.6754   -1.5878 H   0  0  0  0  0  0  0  0  0  0  0  0
   -3.7286   -1.7689   -0.3671 H   0  0  0  0  0  0  0  0  0  0  0  0
   -4.0936   -0.0429   -0.3314 H   0  0  0  0  0  0  0  0  0  0  0  0
    4.7032    0.9375   -0.7569 H   0  0  0  0  0  0  0  0  0  0  0  0
    4.4229   -0.6945   -0.1290 H   0  0  0  0  0  0  0  0  0  0  0  0
    4.0960    0.7282    0.8854 H   0  0  0  0  0  0  0  0  0  0  0  0
   -1.5020    2.9345    0.2850 H   0  0  0  0  0  0  0  0  0  0  0  0
   -2.6013    2.0368    1.3600 H   0  0  0  0  0  0  0  0  0  0  0  0
   -2.9847    2.2024   -0.3736 H   0  0  0  0  0  0  0  0  0  0  0  0
  1  4  1  0  0  0  0
  1  5  1  0  0  0  0
  2  4  1  0  0  0  0
  2  7  2  0  0  0  0
  3  4  1  0  0  0  0
  3  6  1  0  0  0  0
  3  8  1  0  0  0  0
  3 12  1  0  0  0  0
  4 13  1  0  0  0  0
  5  7  1  0  0  0  0
  5  9  1  0  0  0  0
  5 14  1  0  0  0  0
  6 10  1  0  0  0  0
  6 15  1  0  0  0  0
  6 16  1  0  0  0  0
  7 11  1  0  0  0  0
  8 17  1  0  0  0  0
  8 18  1  0  0  0  0
  8 19  1  0  0  0  0
  9 20  1  0  0  0  0
  9 21  1  0  0  0  0
  9 22  1  0  0  0  0
 10 23  1  0  0  0  0
 10 24  1  0  0  0  0
 10 25  1  0  0  0  0
 11 26  1  0  0  0  0
 11 27  1  0  0  0  0
 11 28  1  0  0  0  0
M  END
> <PUBCHEM_COMPOUND_CID>
5362564

> <PUBCHEM_CONFORMER_RMSD>
0.6

> <PUBCHEM_CONFORMER_DIVERSEORDER>
5
11
29
6
18
31
33
3
32
15
28
1
19
24
10
8
30
25
16
22
26
9
12
21
20
4
2
27
23
13
14
7
17

> <PUBCHEM_MMFF94_PARTIAL_CHARGES>
6
1 -0.46
11 0.06
2 -0.7
4 0.48
5 0.29
7 0.33

> <PUBCHEM_EFFECTIVE_ROTOR_COUNT>
2.6

> <PUBCHEM_PHARMACOPHORE_FEATURES>
4
1 10 hydrophobe
1 2 acceptor
1 8 hydrophobe
5 1 2 4 5 7 rings

> <PUBCHEM_HEAVY_ATOM_COUNT>
11

> <PUBCHEM_ATOM_DEF_STEREO_COUNT>
0

> <PUBCHEM_ATOM_UDEF_STEREO_COUNT>
3

> <PUBCHEM_BOND_DEF_STEREO_COUNT>
0

> <PUBCHEM_BOND_UDEF_STEREO_COUNT>
0

> <PUBCHEM_ISOTOPIC_ATOM_COUNT>
0

> <PUBCHEM_COMPONENT_COUNT>
1

> <PUBCHEM_CACTVS_TAUTO_COUNT>
1

> <PUBCHEM_CONFORMER_ID>
0051D38400000005

> <PUBCHEM_MMFF94_ENERGY>
18.5708

> <PUBCHEM_FEATURE_SELFOVERLAP>
20.298

> <PUBCHEM_SHAPE_FINGERPRINT>
10857977 72 18272080630341124475
11062470 55 14418127435246529894
12932764 1 17275092921126086502
13024252 1 12829203386643599071
13839132 238 18199476462859757861
14325111 11 18339928125758114726
14577589 140 12973606650776063120
14993402 34 18260826033456090215
15775835 57 18114748131288760912
16945 1 18337685207631017806
20653085 51 18264231178555650972
20711983 171 18341335496225524292
20871998 184 18271816769057417663
21028194 46 18130790044813920182
21040471 1 18051695447519853865
21501502 16 18269273456685695167
23235685 24 18410854369364912671
23236772 104 18113340816476578305
23402539 116 18341324573939172023
23552423 10 18190459346673606547
2748010 2 18194414294414691871
29004967 10 14634875227534370830
3248919 1 17967823742738548366
369184 2 16660640747974772923
5084963 1 17846781818797926435
53812653 8 18407757028024550491
6333449 129 18342458123319892525
75552 356 18335143128189294119

> <PUBCHEM_SHAPE_MULTIPOLES>
225.24
5.31
1.62
0.98
3.1
0.36
0.26
0.62
-0.56
-1.33
0.11
0.31
-0.06
-0.33

> <PUBCHEM_SHAPE_SELFOVERLAP>
423.471

> <PUBCHEM_SHAPE_VOLUME>
142.9

> <PUBCHEM_COORDINATE_TYPE>
2
5
10

$$$$
