5362565
  -OEChem-11232109483D

 21 20  0     0  0  0  0  0  0999 V2000
    2.9227    0.4069   -0.0219 O   0  0  0  0  0  0  0  0  0  0  0  0
    1.9173   -1.6289    0.0275 O   0  0  0  0  0  0  0  0  0  0  0  0
   -1.9733    0.2080   -0.0080 C   0  0  0  0  0  0  0  0  0  0  0  0
   -0.5599   -0.3273    0.0138 C   0  0  0  0  0  0  0  0  0  0  0  0
   -2.7012   -0.2854   -1.2600 C   0  0  0  0  0  0  0  0  0  0  0  0
   -2.7189   -0.2307    1.2520 C   0  0  0  0  0  0  0  0  0  0  0  0
    0.5823    0.3857   -0.0047 C   0  0  0  0  0  0  0  0  0  0  0  0
    0.6879    1.8818   -0.0037 C   0  0  0  0  0  0  0  0  0  0  0  0
    1.8431   -0.4101    0.0049 C   0  0  0  0  0  0  0  0  0  0  0  0
   -1.9895    1.3005   -0.0338 H   0  0  0  0  0  0  0  0  0  0  0  0
   -0.5063   -1.4158    0.0276 H   0  0  0  0  0  0  0  0  0  0  0  0
   -2.7637   -1.3793   -1.2862 H   0  0  0  0  0  0  0  0  0  0  0  0
   -2.1850    0.0449   -2.1683 H   0  0  0  0  0  0  0  0  0  0  0  0
   -3.7224    0.1096   -1.2945 H   0  0  0  0  0  0  0  0  0  0  0  0
   -2.7814   -1.3224    1.3253 H   0  0  0  0  0  0  0  0  0  0  0  0
   -2.2167    0.1394    2.1528 H   0  0  0  0  0  0  0  0  0  0  0  0
   -3.7407    0.1640    1.2544 H   0  0  0  0  0  0  0  0  0  0  0  0
    1.1892    2.2266   -0.9145 H   0  0  0  0  0  0  0  0  0  0  0  0
    1.2668    2.2223    0.8618 H   0  0  0  0  0  0  0  0  0  0  0  0
   -0.2749    2.3929    0.0445 H   0  0  0  0  0  0  0  0  0  0  0  0
    3.7645   -0.0967   -0.0186 H   0  0  0  0  0  0  0  0  0  0  0  0
  1  9  1  0  0  0  0
  1 21  1  0  0  0  0
  2  9  2  0  0  0  0
  3  4  1  0  0  0  0
  3  5  1  0  0  0  0
  3  6  1  0  0  0  0
  3 10  1  0  0  0  0
  4  7  2  0  0  0  0
  4 11  1  0  0  0  0
  5 12  1  0  0  0  0
  5 13  1  0  0  0  0
  5 14  1  0  0  0  0
  6 15  1  0  0  0  0
  6 16  1  0  0  0  0
  6 17  1  0  0  0  0
  7  8  1  0  0  0  0
  7  9  1  0  0  0  0
  8 18  1  0  0  0  0
  8 19  1  0  0  0  0
  8 20  1  0  0  0  0
M  END
> <PUBCHEM_COMPOUND_CID>
5362565

> <PUBCHEM_CONFORMER_RMSD>
0.4

> <PUBCHEM_CONFORMER_DIVERSEORDER>
1
10
3
2
6
7
9
8
5
4

> <PUBCHEM_MMFF94_PARTIAL_CHARGES>
9
1 -0.65
11 0.15
2 -0.57
21 0.5
3 0.14
4 -0.29
7 -0.12
8 0.14
9 0.71

> <PUBCHEM_EFFECTIVE_ROTOR_COUNT>
2

> <PUBCHEM_PHARMACOPHORE_FEATURES>
5
1 1 acceptor
1 2 acceptor
1 8 hydrophobe
3 1 2 9 anion
3 3 5 6 hydrophobe

> <PUBCHEM_HEAVY_ATOM_COUNT>
9

> <PUBCHEM_ATOM_DEF_STEREO_COUNT>
0

> <PUBCHEM_ATOM_UDEF_STEREO_COUNT>
0

> <PUBCHEM_BOND_DEF_STEREO_COUNT>
1

> <PUBCHEM_BOND_UDEF_STEREO_COUNT>
0

> <PUBCHEM_ISOTOPIC_ATOM_COUNT>
0

> <PUBCHEM_COMPONENT_COUNT>
1

> <PUBCHEM_CACTVS_TAUTO_COUNT>
1

> <PUBCHEM_CONFORMER_ID>
0051D38500000001

> <PUBCHEM_MMFF94_ENERGY>
11.732

> <PUBCHEM_FEATURE_SELFOVERLAP>
25.43

> <PUBCHEM_SHAPE_FINGERPRINT>
12932741 1 17603861247733402325
12932764 1 17917992763086328377
20201158 50 18186798071557654955
20711985 344 17682389257073496620
23552423 10 18117000974911224942
29004967 10 18334581234861040328
3248919 1 17967249784509582333
5084963 1 18059564832612590485

> <PUBCHEM_SHAPE_MULTIPOLES>
173.48
4.35
1.32
0.97
0.5
0.31
0
-0.69
0
-0.85
0
1.01
-0.07
-0.04

> <PUBCHEM_SHAPE_SELFOVERLAP>
325.782

> <PUBCHEM_SHAPE_VOLUME>
108.7

> <PUBCHEM_COORDINATE_TYPE>
2
5
10

$$$$
