5363527
  -OEChem-11232109113D

 42 41  0     0  0  0  0  0  0999 V2000
   -2.1402    0.5292    0.0903 O   0  0  0  0  0  0  0  0  0  0  0  0
   -4.3938    0.3158   -0.3713 O   0  0  0  0  0  0  0  0  0  0  0  0
    1.3387    3.1330    0.2963 C   0  0  0  0  0  0  0  0  0  0  0  0
   -0.0979    2.6027    0.3452 C   0  0  0  0  0  0  0  0  0  0  0  0
    2.4199    2.0990   -0.0421 C   0  0  0  0  0  0  0  0  0  0  0  0
   -0.5743    2.0146   -0.9863 C   0  0  0  0  0  0  0  0  0  0  0  0
    2.4831    0.8851    0.8907 C   0  0  0  0  0  0  0  0  0  0  0  0
   -2.0166    1.5260   -0.9139 C   0  0  0  0  0  0  0  0  0  0  0  0
    3.5875   -0.0679    0.5364 C   0  0  0  0  0  0  0  0  0  0  0  0
    2.1102   -1.5291   -0.8675 C   0  0  0  0  0  0  0  0  0  0  0  0
    1.3403   -2.5014    0.0285 C   0  0  0  0  0  0  0  0  0  0  0  0
    3.4210   -1.1435   -0.2471 C   0  0  0  0  0  0  0  0  0  0  0  0
    0.0193   -2.9219   -0.6159 C   0  0  0  0  0  0  0  0  0  0  0  0
   -0.7334   -3.9161    0.2539 C   0  0  0  0  0  0  0  0  0  0  0  0
   -3.3923    0.0040    0.2588 C   0  0  0  0  0  0  0  0  0  0  0  0
   -3.3714   -1.0293    1.3441 C   0  0  0  0  0  0  0  0  0  0  0  0
    1.3946    3.9483   -0.4356 H   0  0  0  0  0  0  0  0  0  0  0  0
    1.5738    3.5774    1.2715 H   0  0  0  0  0  0  0  0  0  0  0  0
   -0.7592    3.4336    0.6222 H   0  0  0  0  0  0  0  0  0  0  0  0
   -0.1889    1.8610    1.1464 H   0  0  0  0  0  0  0  0  0  0  0  0
    3.3910    2.6116   -0.0215 H   0  0  0  0  0  0  0  0  0  0  0  0
    2.2856    1.7628   -1.0774 H   0  0  0  0  0  0  0  0  0  0  0  0
    0.0613    1.1661   -1.2566 H   0  0  0  0  0  0  0  0  0  0  0  0
   -0.4830    2.7642   -1.7804 H   0  0  0  0  0  0  0  0  0  0  0  0
    2.6535    1.2300    1.9185 H   0  0  0  0  0  0  0  0  0  0  0  0
    1.5173    0.3719    0.9167 H   0  0  0  0  0  0  0  0  0  0  0  0
   -2.3036    1.1041   -1.8842 H   0  0  0  0  0  0  0  0  0  0  0  0
   -2.6827    2.3657   -0.6825 H   0  0  0  0  0  0  0  0  0  0  0  0
    4.5759    0.1420    0.9361 H   0  0  0  0  0  0  0  0  0  0  0  0
    1.4963   -0.6541   -1.0997 H   0  0  0  0  0  0  0  0  0  0  0  0
    2.3199   -2.0043   -1.8341 H   0  0  0  0  0  0  0  0  0  0  0  0
    1.1384   -2.0404    1.0033 H   0  0  0  0  0  0  0  0  0  0  0  0
    1.9530   -3.3920    0.2186 H   0  0  0  0  0  0  0  0  0  0  0  0
    4.2753   -1.7858   -0.4439 H   0  0  0  0  0  0  0  0  0  0  0  0
    0.2084   -3.3740   -1.5964 H   0  0  0  0  0  0  0  0  0  0  0  0
   -0.6096   -2.0394   -0.7811 H   0  0  0  0  0  0  0  0  0  0  0  0
   -0.9446   -3.4940    1.2414 H   0  0  0  0  0  0  0  0  0  0  0  0
   -0.1522   -4.8336    0.3914 H   0  0  0  0  0  0  0  0  0  0  0  0
   -1.6858   -4.1845   -0.2138 H   0  0  0  0  0  0  0  0  0  0  0  0
   -2.8050   -0.6613    2.2038 H   0  0  0  0  0  0  0  0  0  0  0  0
   -4.3950   -1.2269    1.6746 H   0  0  0  0  0  0  0  0  0  0  0  0
   -2.9318   -1.9522    0.9623 H   0  0  0  0  0  0  0  0  0  0  0  0
  1  8  1  0  0  0  0
  1 15  1  0  0  0  0
  2 15  2  0  0  0  0
  3  4  1  0  0  0  0
  3  5  1  0  0  0  0
  3 17  1  0  0  0  0
  3 18  1  0  0  0  0
  4  6  1  0  0  0  0
  4 19  1  0  0  0  0
  4 20  1  0  0  0  0
  5  7  1  0  0  0  0
  5 21  1  0  0  0  0
  5 22  1  0  0  0  0
  6  8  1  0  0  0  0
  6 23  1  0  0  0  0
  6 24  1  0  0  0  0
  7  9  1  0  0  0  0
  7 25  1  0  0  0  0
  7 26  1  0  0  0  0
  8 27  1  0  0  0  0
  8 28  1  0  0  0  0
  9 12  2  0  0  0  0
  9 29  1  0  0  0  0
 10 11  1  0  0  0  0
 10 12  1  0  0  0  0
 10 30  1  0  0  0  0
 10 31  1  0  0  0  0
 11 13  1  0  0  0  0
 11 32  1  0  0  0  0
 11 33  1  0  0  0  0
 12 34  1  0  0  0  0
 13 14  1  0  0  0  0
 13 35  1  0  0  0  0
 13 36  1  0  0  0  0
 14 37  1  0  0  0  0
 14 38  1  0  0  0  0
 14 39  1  0  0  0  0
 15 16  1  0  0  0  0
 16 40  1  0  0  0  0
 16 41  1  0  0  0  0
 16 42  1  0  0  0  0
M  END
> <PUBCHEM_COMPOUND_CID>
5363527

> <PUBCHEM_CONFORMER_RMSD>
1.2

> <PUBCHEM_CONFORMER_DIVERSEORDER>
1
31
14
42
72
46
57
26
80
45
77
23
19
16
2
65
29
84
10
37
25
79
3
34
69
61
18
4
9
59
7
76
75
30
63
55
67
56
28
52
68
48
78
21
8
50
66
49
27
54
62
81
74
35
11
13
47
83
43
82
70
85
24
40
39
73
6
64
60
15
44
17
51
36
5
22
41
71
58
33
53
12
20
32
38

> <PUBCHEM_MMFF94_PARTIAL_CHARGES>
11
1 -0.43
10 0.14
12 -0.29
15 0.66
16 0.06
2 -0.57
29 0.15
34 0.15
7 0.14
8 0.28
9 -0.29

> <PUBCHEM_EFFECTIVE_ROTOR_COUNT>
11

> <PUBCHEM_PHARMACOPHORE_FEATURES>
5
1 14 hydrophobe
1 2 acceptor
3 3 4 6 hydrophobe
3 5 7 9 hydrophobe
4 10 11 12 13 hydrophobe

> <PUBCHEM_HEAVY_ATOM_COUNT>
16

> <PUBCHEM_ATOM_DEF_STEREO_COUNT>
0

> <PUBCHEM_ATOM_UDEF_STEREO_COUNT>
0

> <PUBCHEM_BOND_DEF_STEREO_COUNT>
1

> <PUBCHEM_BOND_UDEF_STEREO_COUNT>
0

> <PUBCHEM_ISOTOPIC_ATOM_COUNT>
0

> <PUBCHEM_COMPONENT_COUNT>
1

> <PUBCHEM_CACTVS_TAUTO_COUNT>
1

> <PUBCHEM_CONFORMER_ID>
0051D74700000001

> <PUBCHEM_MMFF94_ENERGY>
4.7088

> <PUBCHEM_FEATURE_SELFOVERLAP>
25.374

> <PUBCHEM_SHAPE_FINGERPRINT>
10759866 29 17895202065345526214
117890 22 18335708285982849969
12596599 1 17632583738214410431
13402501 40 18408887312924262267
14178342 30 17981316790769096552
14251705 54 18337955580249208500
14251717 144 18412821400141182925
14916288 52 17188411564825239006
15635459 17 18336543815972154929
19734167 9 17842824788361271904
20621476 13 18410570648320902735
20645477 70 18335690698239797149
20765182 20 17756745118366281211
5282274 181 18123199153711133115
6438718 38 17772464853388527806
6443956 14 18339081493231292469
8199 65 18411416181336493436
9795274 37 17685495351457241315

> <PUBCHEM_SHAPE_MULTIPOLES>
317.53
6.39
4.7
1.02
3.55
2.27
0.04
-0.02
1.03
-0.81
-0.23
0.27
-0.03
1.01

> <PUBCHEM_SHAPE_SELFOVERLAP>
584.008

> <PUBCHEM_SHAPE_VOLUME>
200.3

> <PUBCHEM_COORDINATE_TYPE>
2
5
10

$$$$
