5363291
  -OEChem-11232108413D

 26 25  0     0  0  0  0  0  0999 V2000
    0.8383   -0.9743   -0.5835 O   0  0  0  0  0  0  0  0  0  0  0  0
    1.6139   -0.6682    1.5826 O   0  0  0  0  0  0  0  0  0  0  0  0
    3.5495    0.7473   -0.0529 O   0  0  0  0  0  0  0  0  0  0  0  0
   -1.3625   -1.5287    0.2227 C   0  0  0  0  0  0  0  0  0  0  0  0
    0.0099   -2.0564   -0.1782 C   0  0  0  0  0  0  0  0  0  0  0  0
   -2.0546   -0.8507   -0.9262 C   0  0  0  0  0  0  0  0  0  0  0  0
   -2.2133    1.3602    0.2453 C   0  0  0  0  0  0  0  0  0  0  0  0
   -2.4333    0.4358   -0.9154 C   0  0  0  0  0  0  0  0  0  0  0  0
   -3.3885    1.3273    1.2100 C   0  0  0  0  0  0  0  0  0  0  0  0
    1.5631   -0.3987    0.3983 C   0  0  0  0  0  0  0  0  0  0  0  0
    2.3332    0.7593   -0.1694 C   0  0  0  0  0  0  0  0  0  0  0  0
    1.5444    1.8470   -0.8331 C   0  0  0  0  0  0  0  0  0  0  0  0
   -1.9853   -2.3768    0.5328 H   0  0  0  0  0  0  0  0  0  0  0  0
   -1.2640   -0.8910    1.1039 H   0  0  0  0  0  0  0  0  0  0  0  0
    0.4629   -2.6293    0.6401 H   0  0  0  0  0  0  0  0  0  0  0  0
   -0.0748   -2.7412   -1.0299 H   0  0  0  0  0  0  0  0  0  0  0  0
   -2.2680   -1.4505   -1.8072 H   0  0  0  0  0  0  0  0  0  0  0  0
   -1.2774    1.1582    0.7742 H   0  0  0  0  0  0  0  0  0  0  0  0
   -2.1050    2.3779   -0.1500 H   0  0  0  0  0  0  0  0  0  0  0  0
   -2.9464    0.8380   -1.7848 H   0  0  0  0  0  0  0  0  0  0  0  0
   -3.2296    2.0452    2.0212 H   0  0  0  0  0  0  0  0  0  0  0  0
   -3.5115    0.3357    1.6578 H   0  0  0  0  0  0  0  0  0  0  0  0
   -4.3240    1.5920    0.7053 H   0  0  0  0  0  0  0  0  0  0  0  0
    1.0205    1.4542   -1.7075 H   0  0  0  0  0  0  0  0  0  0  0  0
    0.8327    2.2716   -0.1213 H   0  0  0  0  0  0  0  0  0  0  0  0
    2.2242    2.6392   -1.1596 H   0  0  0  0  0  0  0  0  0  0  0  0
  1  5  1  0  0  0  0
  1 10  1  0  0  0  0
  2 10  2  0  0  0  0
  3 11  2  0  0  0  0
  4  5  1  0  0  0  0
  4  6  1  0  0  0  0
  4 13  1  0  0  0  0
  4 14  1  0  0  0  0
  5 15  1  0  0  0  0
  5 16  1  0  0  0  0
  6  8  2  0  0  0  0
  6 17  1  0  0  0  0
  7  8  1  0  0  0  0
  7  9  1  0  0  0  0
  7 18  1  0  0  0  0
  7 19  1  0  0  0  0
  8 20  1  0  0  0  0
  9 21  1  0  0  0  0
  9 22  1  0  0  0  0
  9 23  1  0  0  0  0
 10 11  1  0  0  0  0
 11 12  1  0  0  0  0
 12 24  1  0  0  0  0
 12 25  1  0  0  0  0
 12 26  1  0  0  0  0
M  END
> <PUBCHEM_COMPOUND_CID>
5363291

> <PUBCHEM_CONFORMER_RMSD>
0.8

> <PUBCHEM_CONFORMER_DIVERSEORDER>
2
162
16
23
240
485
357
641
5
521
47
24
211
346
506
444
253
452
690
309
448
64
527
652
37
726
327
89
714
21
560
230
594
127
107
35
36
18
10
572
25
644
33
81
209
88
328
530
280
524
484
122
423
92
4
651
140
650
294
492
331
298
512
96
234
9
686
34
49
426
145
6
461
396
666
417
22
432
538
451
3
388
671
665
456
7
582
216
210
595
282
129
299
139
383
266
1
72
45
333
514
469
13
663
237
445
67
552
71
187
61
14
268
228
375
302
19
715
11
599
371
166
124
435
329
374
270
657
568

> <PUBCHEM_MMFF94_PARTIAL_CHARGES>
13
1 -0.43
10 0.72
11 0.51
12 0.06
17 0.15
2 -0.57
20 0.15
3 -0.57
4 0.14
5 0.28
6 -0.29
7 0.14
8 -0.29

> <PUBCHEM_EFFECTIVE_ROTOR_COUNT>
6

> <PUBCHEM_PHARMACOPHORE_FEATURES>
3
1 2 acceptor
1 3 acceptor
1 9 hydrophobe

> <PUBCHEM_HEAVY_ATOM_COUNT>
12

> <PUBCHEM_ATOM_DEF_STEREO_COUNT>
0

> <PUBCHEM_ATOM_UDEF_STEREO_COUNT>
0

> <PUBCHEM_BOND_DEF_STEREO_COUNT>
1

> <PUBCHEM_BOND_UDEF_STEREO_COUNT>
0

> <PUBCHEM_ISOTOPIC_ATOM_COUNT>
0

> <PUBCHEM_COMPONENT_COUNT>
1

> <PUBCHEM_CACTVS_TAUTO_COUNT>
2

> <PUBCHEM_CONFORMER_ID>
0051D65B00000002

> <PUBCHEM_MMFF94_ENERGY>
9.2497

> <PUBCHEM_FEATURE_SELFOVERLAP>
15.225

> <PUBCHEM_SHAPE_FINGERPRINT>
100427 49 16898487412607198023
10149128 111 18413392029417098985
12696612 119 18187372008243121893
13618510 140 18267586814728921157
13764800 53 18341341058456112211
14123255 52 18341898450474497657
15775835 57 18114175345807348037
17357990 137 18410289173074874530
17834069 17 17169285912194470901
18522851 268 14404599057322017889
19837323 101 18200603604149389855
19973954 147 18336547243213846886
20653085 51 18130234765556434823
20671657 1 18198912409210732047
22802520 49 17916327003096822566
230 275 18198895916657472171
23557571 272 17626929121590091682
430814 3 18271532987804107347
63268167 104 17968641792126718636
66348 1 18265608977840957333

> <PUBCHEM_SHAPE_MULTIPOLES>
229.35
5.06
2.08
1.15
0.06
0.25
-0.21
-2.68
-0.64
-0.34
0.1
-0.33
-0.09
-0.88

> <PUBCHEM_SHAPE_SELFOVERLAP>
433.759

> <PUBCHEM_SHAPE_VOLUME>
141.4

> <PUBCHEM_COORDINATE_TYPE>
2
5
10

$$$$
