5363206
  -OEChem-11232109213D

 27 26  0     0  0  0  0  0  0999 V2000
    1.6996    0.0455    0.2880 O   0  0  0  0  0  0  0  0  0  0  0  0
    3.7610    0.4849   -0.6577 O   0  0  0  0  0  0  0  0  0  0  0  0
   -2.9917   -0.4222   -0.1898 C   0  0  0  0  0  0  0  0  0  0  0  0
   -3.1890    1.0302    0.2453 C   0  0  0  0  0  0  0  0  0  0  0  0
    0.5277   -2.0587    0.2997 C   0  0  0  0  0  0  0  0  0  0  0  0
   -1.7480   -1.0061    0.4149 C   0  0  0  0  0  0  0  0  0  0  0  0
   -0.7142   -1.4667   -0.3048 C   0  0  0  0  0  0  0  0  0  0  0  0
    1.7803   -1.3086   -0.1379 C   0  0  0  0  0  0  0  0  0  0  0  0
   -4.4328    1.6357   -0.3864 C   0  0  0  0  0  0  0  0  0  0  0  0
    2.7650    0.8373   -0.0405 C   0  0  0  0  0  0  0  0  0  0  0  0
    2.5422    2.2289    0.4691 C   0  0  0  0  0  0  0  0  0  0  0  0
   -3.8502   -1.0251    0.1297 H   0  0  0  0  0  0  0  0  0  0  0  0
   -2.9540   -0.4777   -1.2846 H   0  0  0  0  0  0  0  0  0  0  0  0
   -3.2762    1.0880    1.3371 H   0  0  0  0  0  0  0  0  0  0  0  0
   -2.3158    1.6298   -0.0396 H   0  0  0  0  0  0  0  0  0  0  0  0
    0.4604   -2.0390    1.3943 H   0  0  0  0  0  0  0  0  0  0  0  0
    0.6048   -3.1080   -0.0063 H   0  0  0  0  0  0  0  0  0  0  0  0
   -1.7075   -1.0542    1.5003 H   0  0  0  0  0  0  0  0  0  0  0  0
   -0.7606   -1.4299   -1.3905 H   0  0  0  0  0  0  0  0  0  0  0  0
    1.8831   -1.3452   -1.2295 H   0  0  0  0  0  0  0  0  0  0  0  0
    2.6601   -1.7806    0.3151 H   0  0  0  0  0  0  0  0  0  0  0  0
   -4.5565    2.6731   -0.0605 H   0  0  0  0  0  0  0  0  0  0  0  0
   -5.3299    1.0793   -0.0970 H   0  0  0  0  0  0  0  0  0  0  0  0
   -4.3611    1.6292   -1.4787 H   0  0  0  0  0  0  0  0  0  0  0  0
    2.4529    2.2146    1.5582 H   0  0  0  0  0  0  0  0  0  0  0  0
    1.6421    2.6501    0.0143 H   0  0  0  0  0  0  0  0  0  0  0  0
    3.3961    2.8561    0.1973 H   0  0  0  0  0  0  0  0  0  0  0  0
  1  8  1  0  0  0  0
  1 10  1  0  0  0  0
  2 10  2  0  0  0  0
  3  4  1  0  0  0  0
  3  6  1  0  0  0  0
  3 12  1  0  0  0  0
  3 13  1  0  0  0  0
  4  9  1  0  0  0  0
  4 14  1  0  0  0  0
  4 15  1  0  0  0  0
  5  7  1  0  0  0  0
  5  8  1  0  0  0  0
  5 16  1  0  0  0  0
  5 17  1  0  0  0  0
  6  7  2  0  0  0  0
  6 18  1  0  0  0  0
  7 19  1  0  0  0  0
  8 20  1  0  0  0  0
  8 21  1  0  0  0  0
  9 22  1  0  0  0  0
  9 23  1  0  0  0  0
  9 24  1  0  0  0  0
 10 11  1  0  0  0  0
 11 25  1  0  0  0  0
 11 26  1  0  0  0  0
 11 27  1  0  0  0  0
M  END
> <PUBCHEM_COMPOUND_CID>
5363206

> <PUBCHEM_CONFORMER_RMSD>
0.6

> <PUBCHEM_CONFORMER_DIVERSEORDER>
1
250
108
90
254
41
304
59
218
128
321
129
110
51
316
3
56
29
75
286
188
242
5
123
151
315
153
124
53
172
260
142
313
9
37
96
175
319
148
125
16
76
103
102
195
154
43
23
14
187
284
227
44
209
163
184
290
10
259
252
22
230
213
38
261
317
136
131
50
6
320
104
106
98
222
269
21
11
312
237
251
285
192
67
81
52
274
111
42
162
326
82
189
13
57
165
84
238
86
289
164
139
305
65
4
135
301
40
138
63
314
99
311
158
115
60
19
246
18
199
248
15
200
119
217
132
113
180
323
279
2
92
309
64
308
302
258
166
30
79
54
253
127
26
39
183
310
155
245
152
241
240
264
234
303
205
324
95
249
327
215
20
318
145
298
34
156
149
114
87
178
296
288
137
150
174
73
182
235
167
329
117
118
33
287
141
226
229
293
270
107
294
112
31
176
297
307
190
224
196
58
219
212
244
231
24
263
28
35
295
255
94
232
77
272
97
121
201
193
147
271
207
47
83
46
266
267
126
233
101
291
228
277
173
283
262
197
17
68
143
276
186
194
325
185
7
130
85
225
49
210
282
32
216
275
169
159
62
299
140
8
71
133
88
160
157
203
243
122
80
168
265
198
70
256
191
236
328
116
322
221
146
74
181
109
93
220
144
105
12
120
170
268
27
72
66
89
134
91
239
292
300
177
45
69
214
257
202
61
161
247
306
100
208
211
204
281
273
36
223
171
179
25
48
206
78
55
278
280

> <PUBCHEM_MMFF94_PARTIAL_CHARGES>
11
1 -0.43
10 0.66
11 0.06
18 0.15
19 0.15
2 -0.57
3 0.14
5 0.14
6 -0.29
7 -0.29
8 0.28

> <PUBCHEM_EFFECTIVE_ROTOR_COUNT>
6

> <PUBCHEM_PHARMACOPHORE_FEATURES>
2
1 2 acceptor
1 9 hydrophobe

> <PUBCHEM_HEAVY_ATOM_COUNT>
11

> <PUBCHEM_ATOM_DEF_STEREO_COUNT>
0

> <PUBCHEM_ATOM_UDEF_STEREO_COUNT>
0

> <PUBCHEM_BOND_DEF_STEREO_COUNT>
1

> <PUBCHEM_BOND_UDEF_STEREO_COUNT>
0

> <PUBCHEM_ISOTOPIC_ATOM_COUNT>
0

> <PUBCHEM_COMPONENT_COUNT>
1

> <PUBCHEM_CACTVS_TAUTO_COUNT>
1

> <PUBCHEM_CONFORMER_ID>
0051D60600000001

> <PUBCHEM_MMFF94_ENERGY>
1.9841

> <PUBCHEM_FEATURE_SELFOVERLAP>
10.148

> <PUBCHEM_SHAPE_FINGERPRINT>
10149128 76 18411418431704327091
122479 349 18333734641078035755
13618510 140 18411420587883476193
14123255 52 18410852191769033769
14252887 29 12468636101803542272
15775835 57 18410014321064354141
17834072 32 18335989769328397396
17834072 8 18270972254407498950
18186145 218 18059306455885673306
20281407 28 9006792993948299022
20281475 54 9222962494659589434
20304884 271 18339360871957500811
20605781 55 18410008879272374347
20653085 51 18269845370483789738
20671657 1 18339918212652257891
20767249 462 18260827098818963125
21524375 3 18408318908309913251
43658 37 18342163484595577665
449060 23 10231768785346754983
449060 62 18339644430473313409
6430166 295 18409447003435056922
8050 44 18409158914113979301
8199 26 18410857668005479309

> <PUBCHEM_SHAPE_MULTIPOLES>
214.64
7.49
2.41
0.71
3.69
0.27
0
5.41
0.95
-0.47
-0.2
-0.03
0.03
0.32

> <PUBCHEM_SHAPE_SELFOVERLAP>
392.992

> <PUBCHEM_SHAPE_VOLUME>
136.2

> <PUBCHEM_COORDINATE_TYPE>
2
5
10

$$$$
