5363229
  -OEChem-11232108473D

 23 22  0     0  0  0  0  0  0999 V2000
   -2.8938    1.2848   -0.0197 O   0  0  0  0  0  0  0  0  0  0  0  0
    2.0812    0.2593    0.0995 C   0  0  0  0  0  0  0  0  0  0  0  0
    3.4648   -0.3408   -0.1520 C   0  0  0  0  0  0  0  0  0  0  0  0
    1.0285   -0.3696   -0.8154 C   0  0  0  0  0  0  0  0  0  0  0  0
    4.5083    0.2551    0.7794 C   0  0  0  0  0  0  0  0  0  0  0  0
   -0.3361    0.1972   -0.5456 C   0  0  0  0  0  0  0  0  0  0  0  0
   -1.3665   -0.5410   -0.1120 C   0  0  0  0  0  0  0  0  0  0  0  0
   -2.6942    0.0828    0.1410 C   0  0  0  0  0  0  0  0  0  0  0  0
   -3.7921   -0.8279    0.6248 C   0  0  0  0  0  0  0  0  0  0  0  0
    2.1164    1.3441   -0.0626 H   0  0  0  0  0  0  0  0  0  0  0  0
    1.8005    0.1014    1.1487 H   0  0  0  0  0  0  0  0  0  0  0  0
    3.4327   -1.4267   -0.0051 H   0  0  0  0  0  0  0  0  0  0  0  0
    3.7642   -0.1625   -1.1913 H   0  0  0  0  0  0  0  0  0  0  0  0
    1.2847   -0.1766   -1.8640 H   0  0  0  0  0  0  0  0  0  0  0  0
    1.0284   -1.4586   -0.6838 H   0  0  0  0  0  0  0  0  0  0  0  0
    5.4897   -0.1870    0.5813 H   0  0  0  0  0  0  0  0  0  0  0  0
    4.2546    0.0635    1.8269 H   0  0  0  0  0  0  0  0  0  0  0  0
    4.5883    1.3375    0.6374 H   0  0  0  0  0  0  0  0  0  0  0  0
   -0.4584    1.2620   -0.7281 H   0  0  0  0  0  0  0  0  0  0  0  0
   -1.2610   -1.6042    0.0720 H   0  0  0  0  0  0  0  0  0  0  0  0
   -3.9601   -0.6552    1.6908 H   0  0  0  0  0  0  0  0  0  0  0  0
   -4.7063   -0.6166    0.0629 H   0  0  0  0  0  0  0  0  0  0  0  0
   -3.5365   -1.8793    0.4679 H   0  0  0  0  0  0  0  0  0  0  0  0
  1  8  2  0  0  0  0
  2  3  1  0  0  0  0
  2  4  1  0  0  0  0
  2 10  1  0  0  0  0
  2 11  1  0  0  0  0
  3  5  1  0  0  0  0
  3 12  1  0  0  0  0
  3 13  1  0  0  0  0
  4  6  1  0  0  0  0
  4 14  1  0  0  0  0
  4 15  1  0  0  0  0
  5 16  1  0  0  0  0
  5 17  1  0  0  0  0
  5 18  1  0  0  0  0
  6  7  2  0  0  0  0
  6 19  1  0  0  0  0
  7  8  1  0  0  0  0
  7 20  1  0  0  0  0
  8  9  1  0  0  0  0
  9 21  1  0  0  0  0
  9 22  1  0  0  0  0
  9 23  1  0  0  0  0
M  END
> <PUBCHEM_COMPOUND_CID>
5363229

> <PUBCHEM_CONFORMER_RMSD>
0.6

> <PUBCHEM_CONFORMER_DIVERSEORDER>
2
38
23
36
30
39
6
19
40
37
31
10
18
28
34
32
29
5
12
11
33
35
3
20
25
4
15
16
22
17
26
1
8
14
27
7
21
24
9
13

> <PUBCHEM_MMFF94_PARTIAL_CHARGES>
8
1 -0.57
19 0.15
20 0.15
4 0.14
6 -0.29
7 -0.14
8 0.49
9 0.06

> <PUBCHEM_EFFECTIVE_ROTOR_COUNT>
4

> <PUBCHEM_PHARMACOPHORE_FEATURES>
3
1 1 acceptor
1 5 hydrophobe
4 2 3 4 6 hydrophobe

> <PUBCHEM_HEAVY_ATOM_COUNT>
9

> <PUBCHEM_ATOM_DEF_STEREO_COUNT>
0

> <PUBCHEM_ATOM_UDEF_STEREO_COUNT>
0

> <PUBCHEM_BOND_DEF_STEREO_COUNT>
1

> <PUBCHEM_BOND_UDEF_STEREO_COUNT>
0

> <PUBCHEM_ISOTOPIC_ATOM_COUNT>
0

> <PUBCHEM_COMPONENT_COUNT>
1

> <PUBCHEM_CACTVS_TAUTO_COUNT>
5

> <PUBCHEM_CONFORMER_ID>
0051D61D00000002

> <PUBCHEM_MMFF94_ENERGY>
3.0836

> <PUBCHEM_FEATURE_SELFOVERLAP>
15.223

> <PUBCHEM_SHAPE_FINGERPRINT>
11062470 55 13398632753418280610
12932764 1 17775280556089741022
14325111 11 18413109437580092966
177051 138 17821451274201751138
18342897 14 17203896266167323064
190213 19 18040715861685561230
20211469 26 17676204701867569015
20645464 45 18130793351933619439
20645477 70 13118269378737054152
20711985 327 16660369181524648430
20828058 21 18410299111966814102
20828058 44 18040714770895840970
21119208 17 9655580712127421562
21293036 1 10807931574605163774
22485316 2 15502371249007069962
23402539 116 18410566306536033255
449060 50 17989205975665932652
528716 315 10447925083576438725

> <PUBCHEM_SHAPE_MULTIPOLES>
179.35
8.32
0.9
0.84
3.55
0.11
0
-0.07
2.67
-0.6
0.02
0.21
-0.05
0.35

> <PUBCHEM_SHAPE_SELFOVERLAP>
324.982

> <PUBCHEM_SHAPE_VOLUME>
115.2

> <PUBCHEM_COORDINATE_TYPE>
2
5
10

$$$$
