5363453
  -OEChem-11232109433D

 53 52  0     1  0  0  0  0  0999 V2000
    2.2375    0.2094   -0.2273 O   0  0  0  0  0  0  0  0  0  0  0  0
    4.1575   -1.0684   -0.2384 O   0  0  0  0  0  0  0  0  0  0  0  0
    1.4676   -0.9530    0.1079 C   0  0  1  0  0  0  0  0  0  0  0  0
   -0.0230   -0.5484    0.2251 C   0  0  0  0  0  0  0  0  0  0  0  0
   -0.3094    0.5563    1.2523 C   0  0  0  0  0  0  0  0  0  0  0  0
    1.6291   -1.9411   -1.0580 C   0  0  0  0  0  0  0  0  0  0  0  0
   -1.7785    0.8724    1.3154 C   0  0  0  0  0  0  0  0  0  0  0  0
    2.0092   -1.4611    1.4267 C   0  0  0  0  0  0  0  0  0  0  0  0
   -2.4428    1.7777    0.5711 C   0  0  0  0  0  0  0  0  0  0  0  0
   -3.9196    2.0693    0.7140 C   0  0  0  0  0  0  0  0  0  0  0  0
    4.2574    1.3179   -0.7105 C   0  0  0  0  0  0  0  0  0  0  0  0
    3.5792    0.0024   -0.3705 C   0  0  0  0  0  0  0  0  0  0  0  0
   -4.7677    1.2303   -0.2445 C   0  0  0  0  0  0  0  0  0  0  0  0
   -1.7165    2.6042   -0.4562 C   0  0  0  0  0  0  0  0  0  0  0  0
    2.0794   -2.7316    1.8433 C   0  0  0  0  0  0  0  0  0  0  0  0
    5.4707    1.0856   -1.6072 C   0  0  0  0  0  0  0  0  0  0  0  0
    4.6567    2.0376    0.5722 C   0  0  0  0  0  0  0  0  0  0  0  0
   -4.6377   -0.2354    0.0612 C   0  0  0  0  0  0  0  0  0  0  0  0
   -4.1719   -1.2039   -0.7500 C   0  0  0  0  0  0  0  0  0  0  0  0
   -4.1373   -2.6360   -0.2883 C   0  0  0  0  0  0  0  0  0  0  0  0
   -3.6402   -0.9844   -2.1383 C   0  0  0  0  0  0  0  0  0  0  0  0
   -0.3634   -0.1953   -0.7581 H   0  0  0  0  0  0  0  0  0  0  0  0
   -0.6269   -1.4342    0.4665 H   0  0  0  0  0  0  0  0  0  0  0  0
    0.2837    1.4530    1.0447 H   0  0  0  0  0  0  0  0  0  0  0  0
   -0.0037    0.2301    2.2536 H   0  0  0  0  0  0  0  0  0  0  0  0
    0.8515   -2.7140   -1.0216 H   0  0  0  0  0  0  0  0  0  0  0  0
    2.5812   -2.4788   -1.0725 H   0  0  0  0  0  0  0  0  0  0  0  0
    1.5381   -1.4263   -2.0221 H   0  0  0  0  0  0  0  0  0  0  0  0
   -2.3420    0.2979    2.0487 H   0  0  0  0  0  0  0  0  0  0  0  0
    2.3328   -0.7020    2.1390 H   0  0  0  0  0  0  0  0  0  0  0  0
   -4.1061    3.1359    0.5377 H   0  0  0  0  0  0  0  0  0  0  0  0
   -4.2346    1.8802    1.7490 H   0  0  0  0  0  0  0  0  0  0  0  0
    3.5457    1.9363   -1.2717 H   0  0  0  0  0  0  0  0  0  0  0  0
   -4.5212    1.4774   -1.2799 H   0  0  0  0  0  0  0  0  0  0  0  0
   -5.8210    1.5080   -0.1131 H   0  0  0  0  0  0  0  0  0  0  0  0
   -0.6940    2.2818   -0.6625 H   0  0  0  0  0  0  0  0  0  0  0  0
   -1.6799    3.6504   -0.1346 H   0  0  0  0  0  0  0  0  0  0  0  0
   -2.2496    2.5620   -1.4123 H   0  0  0  0  0  0  0  0  0  0  0  0
    1.7500   -3.5567    1.2227 H   0  0  0  0  0  0  0  0  0  0  0  0
    2.4684   -2.9640    2.8288 H   0  0  0  0  0  0  0  0  0  0  0  0
    5.1834    0.5453   -2.5159 H   0  0  0  0  0  0  0  0  0  0  0  0
    5.9218    2.0375   -1.9061 H   0  0  0  0  0  0  0  0  0  0  0  0
    6.2377    0.4911   -1.0985 H   0  0  0  0  0  0  0  0  0  0  0  0
    5.3629    1.4403    1.1598 H   0  0  0  0  0  0  0  0  0  0  0  0
    3.7806    2.2225    1.2032 H   0  0  0  0  0  0  0  0  0  0  0  0
    5.1247    3.0022    0.3509 H   0  0  0  0  0  0  0  0  0  0  0  0
   -4.9942   -0.5230    1.0497 H   0  0  0  0  0  0  0  0  0  0  0  0
   -4.7346   -3.2641   -0.9573 H   0  0  0  0  0  0  0  0  0  0  0  0
   -4.5351   -2.7580    0.7247 H   0  0  0  0  0  0  0  0  0  0  0  0
   -3.1077   -3.0089   -0.2871 H   0  0  0  0  0  0  0  0  0  0  0  0
   -4.2821   -1.4871   -2.8690 H   0  0  0  0  0  0  0  0  0  0  0  0
   -3.5673    0.0655   -2.4264 H   0  0  0  0  0  0  0  0  0  0  0  0
   -2.6318   -1.4044   -2.2219 H   0  0  0  0  0  0  0  0  0  0  0  0
  1  3  1  0  0  0  0
  1 12  1  0  0  0  0
  2 12  2  0  0  0  0
  3  4  1  0  0  0  0
  3  6  1  0  0  0  0
  3  8  1  0  0  0  0
  4  5  1  0  0  0  0
  4 22  1  0  0  0  0
  4 23  1  0  0  0  0
  5  7  1  0  0  0  0
  5 24  1  0  0  0  0
  5 25  1  0  0  0  0
  6 26  1  0  0  0  0
  6 27  1  0  0  0  0
  6 28  1  0  0  0  0
  7  9  2  0  0  0  0
  7 29  1  0  0  0  0
  8 15  2  0  0  0  0
  8 30  1  0  0  0  0
  9 10  1  0  0  0  0
  9 14  1  0  0  0  0
 10 13  1  0  0  0  0
 10 31  1  0  0  0  0
 10 32  1  0  0  0  0
 11 12  1  0  0  0  0
 11 16  1  0  0  0  0
 11 17  1  0  0  0  0
 11 33  1  0  0  0  0
 13 18  1  0  0  0  0
 13 34  1  0  0  0  0
 13 35  1  0  0  0  0
 14 36  1  0  0  0  0
 14 37  1  0  0  0  0
 14 38  1  0  0  0  0
 15 39  1  0  0  0  0
 15 40  1  0  0  0  0
 16 41  1  0  0  0  0
 16 42  1  0  0  0  0
 16 43  1  0  0  0  0
 17 44  1  0  0  0  0
 17 45  1  0  0  0  0
 17 46  1  0  0  0  0
 18 19  2  0  0  0  0
 18 47  1  0  0  0  0
 19 20  1  0  0  0  0
 19 21  1  0  0  0  0
 20 48  1  0  0  0  0
 20 49  1  0  0  0  0
 20 50  1  0  0  0  0
 21 51  1  0  0  0  0
 21 52  1  0  0  0  0
 21 53  1  0  0  0  0
M  END
> <PUBCHEM_COMPOUND_CID>
5363453

> <PUBCHEM_CONFORMER_RMSD>
1

> <PUBCHEM_CONFORMER_DIVERSEORDER>
1
119
84
139
109
145
149
21
89
48
164
134
137
44
96
8
148
78
43
166
65
160
20
159
107
165
161
103
36
123
83
22
156
158
34
2
82
98
79
133
114
105
5
10
117
143
151
12
130
118
163
136
127
154
71
4
150
6
122
106
146
33
19
35
141
101
29
142
85
135
144
138
157
147
131
11
77
68
25
73
23
124
108
13
72
125
167
27
95
153
76
88
70
162
42
24
110
55
32
80
67
57
155
152
64
97
75
115
63
9
102
99
129
112
92
39
168
47
66
116
17
111
28
100
61
74
37
87
38
3
52
104
113
120
128
26
51
62
91
7
93
45
59
31
41
170
126
132
40
49
90
16
53
54
15
46
60
169
94
58
30
69
81
14
56
86
121
140
50
18

> <PUBCHEM_MMFF94_PARTIAL_CHARGES>
22
1 -0.43
10 0.14
11 0.06
12 0.66
13 0.14
14 0.14
15 -0.3
18 -0.29
19 -0.28
2 -0.57
20 0.14
21 0.14
29 0.15
3 0.42
30 0.15
39 0.15
40 0.15
47 0.15
5 0.14
7 -0.29
8 -0.29
9 -0.28

> <PUBCHEM_EFFECTIVE_ROTOR_COUNT>
10

> <PUBCHEM_PHARMACOPHORE_FEATURES>
6
1 14 hydrophobe
1 15 hydrophobe
1 2 acceptor
3 11 16 17 hydrophobe
3 19 20 21 hydrophobe
4 9 10 13 18 hydrophobe

> <PUBCHEM_HEAVY_ATOM_COUNT>
21

> <PUBCHEM_ATOM_DEF_STEREO_COUNT>
0

> <PUBCHEM_ATOM_UDEF_STEREO_COUNT>
1

> <PUBCHEM_BOND_DEF_STEREO_COUNT>
1

> <PUBCHEM_BOND_UDEF_STEREO_COUNT>
0

> <PUBCHEM_ISOTOPIC_ATOM_COUNT>
0

> <PUBCHEM_COMPONENT_COUNT>
1

> <PUBCHEM_CACTVS_TAUTO_COUNT>
1

> <PUBCHEM_CONFORMER_ID>
0051D6FD00000001

> <PUBCHEM_MMFF94_ENERGY>
34.0268

> <PUBCHEM_FEATURE_SELFOVERLAP>
30.456

> <PUBCHEM_SHAPE_FINGERPRINT>
10042902 136 16915086568359177071
10090160 65 17967255308069860992
10759866 29 18410571747653403163
11014199 57 17053563537869847823
11759241 127 18334018263364568365
12553582 1 17988066890383922087
12616971 3 18335139735175602194
12670546 177 18272092664649837084
12788726 201 18201435819088841049
13167823 11 18336828567998597011
13631057 29 18340206409759136883
13675066 3 12179846116951090704
14251757 5 17845935250848348143
14251764 30 14836410254207802804
14528608 73 18411422816998058484
14617045 38 17989494017890459551
15415430 112 18202282503029195929
15537594 2 18413392042734511395
15848702 105 18342177799700275034
17349148 13 16950566566693158196
21709351 56 18263083232481373468
22393880 68 18412827949876969812
23402539 116 18334013886761010932
23559900 14 17914896422347180910
238078 22 18131917070271525433
268830 7 17531809030863043809
2838139 119 18041286534476146908
329604 57 18266740358368714735
4325135 7 18342179972516136621
474 4 17967824863799028124
574716 61 18187360996105230335
67856867 119 18261947454023117354
7495541 125 16845569833902439938

> <PUBCHEM_SHAPE_MULTIPOLES>
420.43
11.92
2.99
1.58
2.31
0.4
0.11
-2.79
3.97
-0.8
-0.49
0.32
0.54
-1.96

> <PUBCHEM_SHAPE_SELFOVERLAP>
809.335

> <PUBCHEM_SHAPE_VOLUME>
256.8

> <PUBCHEM_COORDINATE_TYPE>
2
5
10

$$$$
