5363876
  -OEChem-11232108423D

 33 33  0     0  0  0  0  0  0999 V2000
   -2.8136   -2.3721   -0.0324 O   0  0  0  0  0  0  0  0  0  0  0  0
    3.8756    0.8421    0.6587 O   0  0  0  0  0  0  0  0  0  0  0  0
   -1.1385    1.4602   -0.0754 C   0  0  0  0  0  0  0  0  0  0  0  0
   -2.4983    1.1165   -0.7271 C   0  0  0  0  0  0  0  0  0  0  0  0
   -0.2984    0.1807    0.1210 C   0  0  0  0  0  0  0  0  0  0  0  0
   -3.2019   -0.0286   -0.0320 C   0  0  0  0  0  0  0  0  0  0  0  0
   -1.3691    2.1411    1.2910 C   0  0  0  0  0  0  0  0  0  0  0  0
   -0.4617    2.4818   -1.0238 C   0  0  0  0  0  0  0  0  0  0  0  0
   -0.8286   -1.0657    0.1300 C   0  0  0  0  0  0  0  0  0  0  0  0
   -2.3170   -1.2454   -0.0034 C   0  0  0  0  0  0  0  0  0  0  0  0
    1.1269    0.4002    0.3063 C   0  0  0  0  0  0  0  0  0  0  0  0
   -0.0841   -2.3642    0.3127 C   0  0  0  0  0  0  0  0  0  0  0  0
    2.0449   -0.3887   -0.2424 C   0  0  0  0  0  0  0  0  0  0  0  0
    3.4905   -0.1110   -0.0149 C   0  0  0  0  0  0  0  0  0  0  0  0
    4.4734   -1.0468   -0.6682 C   0  0  0  0  0  0  0  0  0  0  0  0
   -2.3415    0.8409   -1.7799 H   0  0  0  0  0  0  0  0  0  0  0  0
   -3.1562    1.9949   -0.7336 H   0  0  0  0  0  0  0  0  0  0  0  0
   -4.1139   -0.2766   -0.5868 H   0  0  0  0  0  0  0  0  0  0  0  0
   -3.4890    0.2233    0.9934 H   0  0  0  0  0  0  0  0  0  0  0  0
   -1.7956    1.4499    2.0262 H   0  0  0  0  0  0  0  0  0  0  0  0
   -0.4342    2.5268    1.7133 H   0  0  0  0  0  0  0  0  0  0  0  0
   -2.0550    2.9910    1.1963 H   0  0  0  0  0  0  0  0  0  0  0  0
    0.4595    2.8935   -0.5968 H   0  0  0  0  0  0  0  0  0  0  0  0
   -0.2082    2.0231   -1.9868 H   0  0  0  0  0  0  0  0  0  0  0  0
   -1.1256    3.3313   -1.2241 H   0  0  0  0  0  0  0  0  0  0  0  0
    1.4109    1.2307    0.9456 H   0  0  0  0  0  0  0  0  0  0  0  0
   -0.6953   -3.0986    0.8502 H   0  0  0  0  0  0  0  0  0  0  0  0
    0.8121   -2.2660    0.9310 H   0  0  0  0  0  0  0  0  0  0  0  0
    0.1754   -2.8006   -0.6568 H   0  0  0  0  0  0  0  0  0  0  0  0
    1.8183   -1.1961   -0.9275 H   0  0  0  0  0  0  0  0  0  0  0  0
    5.3097   -1.2230    0.0143 H   0  0  0  0  0  0  0  0  0  0  0  0
    4.0122   -2.0137   -0.8873 H   0  0  0  0  0  0  0  0  0  0  0  0
    4.8383   -0.5986   -1.5956 H   0  0  0  0  0  0  0  0  0  0  0  0
  1 10  2  0  0  0  0
  2 14  2  0  0  0  0
  3  4  1  0  0  0  0
  3  5  1  0  0  0  0
  3  7  1  0  0  0  0
  3  8  1  0  0  0  0
  4  6  1  0  0  0  0
  4 16  1  0  0  0  0
  4 17  1  0  0  0  0
  5  9  2  0  0  0  0
  5 11  1  0  0  0  0
  6 10  1  0  0  0  0
  6 18  1  0  0  0  0
  6 19  1  0  0  0  0
  7 20  1  0  0  0  0
  7 21  1  0  0  0  0
  7 22  1  0  0  0  0
  8 23  1  0  0  0  0
  8 24  1  0  0  0  0
  8 25  1  0  0  0  0
  9 10  1  0  0  0  0
  9 12  1  0  0  0  0
 11 13  2  0  0  0  0
 11 26  1  0  0  0  0
 12 27  1  0  0  0  0
 12 28  1  0  0  0  0
 12 29  1  0  0  0  0
 13 14  1  0  0  0  0
 13 30  1  0  0  0  0
 14 15  1  0  0  0  0
 15 31  1  0  0  0  0
 15 32  1  0  0  0  0
 15 33  1  0  0  0  0
M  END
> <PUBCHEM_COMPOUND_CID>
5363876

> <PUBCHEM_CONFORMER_RMSD>
0.6

> <PUBCHEM_CONFORMER_DIVERSEORDER>
2
5
3
1
4

> <PUBCHEM_MMFF94_PARTIAL_CHARGES>
14
1 -0.57
10 0.49
11 -0.15
12 0.14
13 -0.14
14 0.49
15 0.06
2 -0.57
26 0.15
3 0.14
30 0.15
5 -0.14
6 0.06
9 -0.12

> <PUBCHEM_EFFECTIVE_ROTOR_COUNT>
2.6

> <PUBCHEM_PHARMACOPHORE_FEATURES>
4
1 1 acceptor
1 2 acceptor
3 3 7 8 hydrophobe
6 3 4 5 6 9 10 rings

> <PUBCHEM_HEAVY_ATOM_COUNT>
15

> <PUBCHEM_ATOM_DEF_STEREO_COUNT>
0

> <PUBCHEM_ATOM_UDEF_STEREO_COUNT>
0

> <PUBCHEM_BOND_DEF_STEREO_COUNT>
1

> <PUBCHEM_BOND_UDEF_STEREO_COUNT>
0

> <PUBCHEM_ISOTOPIC_ATOM_COUNT>
0

> <PUBCHEM_COMPONENT_COUNT>
1

> <PUBCHEM_CACTVS_TAUTO_COUNT>
4

> <PUBCHEM_CONFORMER_ID>
0051D8A400000002

> <PUBCHEM_MMFF94_ENERGY>
37.8987

> <PUBCHEM_FEATURE_SELFOVERLAP>
20.297

> <PUBCHEM_SHAPE_FINGERPRINT>
10608611 8 18342171159770642432
108231 29 18269553999812394697
10989021 7 18188496903017172324
11132069 177 18410852166062481592
11680986 33 17615686667099745043
12032990 46 18338239382987664203
13024252 1 15140970530216784761
13027679 85 18343017835237393785
13380535 220 18189895499409344877
14614273 12 18189893123960049357
15775835 57 18189337857713695856
16945 1 18336250268074672109
17870717 6 18127428782297666950
18186145 218 18270117895043885632
200 152 17131826543394997510
20510252 161 18341331166903661034
20871998 184 18272372005011977711
21029758 11 18198334246867984171
21029758 27 18042133205430905591
21296965 67 18266457792338389971
22213442 358 18265893734056468589
2334 1 18193273228920187537
23402539 116 18411691106287858222
23419403 2 17911772950721182533
23557571 272 18342186591261109126
23559900 14 18341889672193613144
2748010 2 18193261104380511221
3071541 250 18046635774134204327
353137 74 18337104549743621939
4175511 318 17604139342354606205
43471831 8 18260543381711698690
6333449 129 18411699855130724764
7364860 26 17620192474065706617
77492 1 17240477001244448706
81228 2 18336273430648573058
8809292 202 18410858771801459994
9709674 26 18201160949545309478

> <PUBCHEM_SHAPE_MULTIPOLES>
296.95
6.16
2.56
0.9
7.65
0.21
-0.05
1.11
0.59
-1.74
-0.02
-0.08
-0.44
0.25

> <PUBCHEM_SHAPE_SELFOVERLAP>
603.195

> <PUBCHEM_SHAPE_VOLUME>
172.8

> <PUBCHEM_COORDINATE_TYPE>
2
5
10

$$$$
