5363537
  -OEChem-11232109413D

 26 25  0     0  0  0  0  0  0999 V2000
    3.6722    0.8221   -0.5878 O   0  0  0  0  0  0  0  0  0  0  0  0
   -2.9641    0.4943    0.2783 C   0  0  0  0  0  0  0  0  0  0  0  0
    0.9309    0.8206    0.1171 C   0  0  0  0  0  0  0  0  0  0  0  0
   -3.7009   -0.5869   -0.5163 C   0  0  0  0  0  0  0  0  0  0  0  0
    1.8013   -0.4200    0.3164 C   0  0  0  0  0  0  0  0  0  0  0  0
   -1.5571    0.7112   -0.1979 C   0  0  0  0  0  0  0  0  0  0  0  0
   -0.4784    0.6060    0.5921 C   0  0  0  0  0  0  0  0  0  0  0  0
   -5.1241   -0.8244   -0.0300 C   0  0  0  0  0  0  0  0  0  0  0  0
    3.2496   -0.2277   -0.1062 C   0  0  0  0  0  0  0  0  0  0  0  0
    4.1708   -1.3953    0.1343 C   0  0  0  0  0  0  0  0  0  0  0  0
   -2.9746    0.2306    1.3432 H   0  0  0  0  0  0  0  0  0  0  0  0
   -3.5069    1.4430    0.1847 H   0  0  0  0  0  0  0  0  0  0  0  0
    1.3584    1.6627    0.6752 H   0  0  0  0  0  0  0  0  0  0  0  0
    0.9467    1.1130   -0.9404 H   0  0  0  0  0  0  0  0  0  0  0  0
   -3.7319   -0.3086   -1.5770 H   0  0  0  0  0  0  0  0  0  0  0  0
   -3.1456   -1.5311   -0.4537 H   0  0  0  0  0  0  0  0  0  0  0  0
    1.3947   -1.2571   -0.2634 H   0  0  0  0  0  0  0  0  0  0  0  0
    1.8023   -0.7057    1.3752 H   0  0  0  0  0  0  0  0  0  0  0  0
   -1.4291    0.9744   -1.2450 H   0  0  0  0  0  0  0  0  0  0  0  0
   -0.6072    0.3551    1.6421 H   0  0  0  0  0  0  0  0  0  0  0  0
   -5.1303   -1.1463    1.0161 H   0  0  0  0  0  0  0  0  0  0  0  0
   -5.6057   -1.6030   -0.6296 H   0  0  0  0  0  0  0  0  0  0  0  0
   -5.7216    0.0890   -0.1125 H   0  0  0  0  0  0  0  0  0  0  0  0
    4.2412   -1.5913    1.2070 H   0  0  0  0  0  0  0  0  0  0  0  0
    5.1676   -1.1649   -0.2517 H   0  0  0  0  0  0  0  0  0  0  0  0
    3.7886   -2.2768   -0.3863 H   0  0  0  0  0  0  0  0  0  0  0  0
  1  9  2  0  0  0  0
  2  4  1  0  0  0  0
  2  6  1  0  0  0  0
  2 11  1  0  0  0  0
  2 12  1  0  0  0  0
  3  5  1  0  0  0  0
  3  7  1  0  0  0  0
  3 13  1  0  0  0  0
  3 14  1  0  0  0  0
  4  8  1  0  0  0  0
  4 15  1  0  0  0  0
  4 16  1  0  0  0  0
  5  9  1  0  0  0  0
  5 17  1  0  0  0  0
  5 18  1  0  0  0  0
  6  7  2  0  0  0  0
  6 19  1  0  0  0  0
  7 20  1  0  0  0  0
  8 21  1  0  0  0  0
  8 22  1  0  0  0  0
  8 23  1  0  0  0  0
  9 10  1  0  0  0  0
 10 24  1  0  0  0  0
 10 25  1  0  0  0  0
 10 26  1  0  0  0  0
M  END
> <PUBCHEM_COMPOUND_CID>
5363537

> <PUBCHEM_CONFORMER_RMSD>
0.6

> <PUBCHEM_CONFORMER_DIVERSEORDER>
1
90
69
53
136
57
93
87
55
48
103
23
2
36
109
22
147
19
110
61
3
113
101
46
104
7
42
11
129
33
99
9
6
146
17
100
125
63
26
37
35
132
124
13
76
44
154
82
28
112
77
117
51
128
31
78
85
84
59
153
149
152
54
27
64
134
65
105
102
73
92
30
68
96
127
62
40
118
25
151
20
16
116
95
5
34
83
86
89
29
108
24
49
106
126
131
156
58
50
52
114
88
10
122
145
135
97
119
12
120
79
71
141
4
38
133
67
107
56
39
150
43
8
142
137
130
47
15
91
14
21
111
70
139
18
80
45
94
81
155
32
140
115
41
72
98
121
148
144
74
123
138
66
60
143
75

> <PUBCHEM_MMFF94_PARTIAL_CHARGES>
10
1 -0.57
10 0.06
19 0.15
2 0.14
20 0.15
3 0.14
5 0.06
6 -0.29
7 -0.29
9 0.45

> <PUBCHEM_EFFECTIVE_ROTOR_COUNT>
5

> <PUBCHEM_PHARMACOPHORE_FEATURES>
2
1 1 acceptor
1 8 hydrophobe

> <PUBCHEM_HEAVY_ATOM_COUNT>
10

> <PUBCHEM_ATOM_DEF_STEREO_COUNT>
0

> <PUBCHEM_ATOM_UDEF_STEREO_COUNT>
0

> <PUBCHEM_BOND_DEF_STEREO_COUNT>
1

> <PUBCHEM_BOND_UDEF_STEREO_COUNT>
0

> <PUBCHEM_ISOTOPIC_ATOM_COUNT>
0

> <PUBCHEM_COMPONENT_COUNT>
1

> <PUBCHEM_CACTVS_TAUTO_COUNT>
3

> <PUBCHEM_CONFORMER_ID>
0051D75100000001

> <PUBCHEM_MMFF94_ENERGY>
1.1119

> <PUBCHEM_FEATURE_SELFOVERLAP>
10.148

> <PUBCHEM_SHAPE_FINGERPRINT>
100836 57 8070028895699124063
11062470 55 7853573513084312517
114248 4 17168143468469047787
11987891 38 18412265016913409559
13690532 89 18410573981041282099
14123255 352 9943536197857026867
14252887 29 16128661834000691326
15477762 27 18407761443430278884
177051 138 18271526412230406102
18186145 218 16370732508494694512
18342897 14 9943802292091353802
20645477 70 18187082824037810026
20671657 53 18410013247375732413
20724930 31 18131347518425641362
20767249 213 9439403532584402419
21119208 17 16732984223694565383
21293036 1 16877940555509004465
22485316 2 18343016696759492501
23402539 116 17967809405884552324
42 15 13398637151348805709
449060 50 13542454372074084906
81539 233 12324232849986645337

> <PUBCHEM_SHAPE_MULTIPOLES>
199.93
10.18
1.17
0.72
3.72
0.17
0.01
4.3
-0.9
-0.38
0
0.01
-0.03
-0.37

> <PUBCHEM_SHAPE_SELFOVERLAP>
361.612

> <PUBCHEM_SHAPE_VOLUME>
128.4

> <PUBCHEM_COORDINATE_TYPE>
2
5
10

$$$$
