5363389
  -OEChem-11232109203D

 33 32  0     0  0  0  0  0  0999 V2000
   -2.4663    0.0067   -0.2899 O   0  0  0  0  0  0  0  0  0  0  0  0
   -4.3259   -0.7431    0.8578 O   0  0  0  0  0  0  0  0  0  0  0  0
    0.1483    1.2126    0.2374 C   0  0  0  0  0  0  0  0  0  0  0  0
    1.3629    2.0501   -0.1825 C   0  0  0  0  0  0  0  0  0  0  0  0
   -1.1724    1.9878    0.1843 C   0  0  0  0  0  0  0  0  0  0  0  0
    2.7065    1.3136   -0.1718 C   0  0  0  0  0  0  0  0  0  0  0  0
   -2.3626    1.1224    0.5827 C   0  0  0  0  0  0  0  0  0  0  0  0
    2.7559    0.1676   -1.1402 C   0  0  0  0  0  0  0  0  0  0  0  0
    2.8870   -1.1152   -0.7711 C   0  0  0  0  0  0  0  0  0  0  0  0
    3.0006   -1.5652    0.6551 C   0  0  0  0  0  0  0  0  0  0  0  0
    4.4513   -1.6088    1.1091 C   0  0  0  0  0  0  0  0  0  0  0  0
   -3.5002   -0.8534   -0.0385 C   0  0  0  0  0  0  0  0  0  0  0  0
   -3.4852   -1.9751   -1.0323 C   0  0  0  0  0  0  0  0  0  0  0  0
    0.3077    0.8381    1.2561 H   0  0  0  0  0  0  0  0  0  0  0  0
    0.0747    0.3349   -0.4147 H   0  0  0  0  0  0  0  0  0  0  0  0
    1.4408    2.9174    0.4851 H   0  0  0  0  0  0  0  0  0  0  0  0
    1.1849    2.4527   -1.1884 H   0  0  0  0  0  0  0  0  0  0  0  0
   -1.3219    2.3526   -0.8392 H   0  0  0  0  0  0  0  0  0  0  0  0
   -1.1187    2.8615    0.8435 H   0  0  0  0  0  0  0  0  0  0  0  0
    3.4893    2.0244   -0.4665 H   0  0  0  0  0  0  0  0  0  0  0  0
    2.9490    1.0287    0.8554 H   0  0  0  0  0  0  0  0  0  0  0  0
   -2.2383    0.7720    1.6143 H   0  0  0  0  0  0  0  0  0  0  0  0
   -3.2794    1.7203    0.5206 H   0  0  0  0  0  0  0  0  0  0  0  0
    2.6872    0.4034   -2.1988 H   0  0  0  0  0  0  0  0  0  0  0  0
    2.9303   -1.8799   -1.5420 H   0  0  0  0  0  0  0  0  0  0  0  0
    2.4021   -0.9524    1.3364 H   0  0  0  0  0  0  0  0  0  0  0  0
    2.5743   -2.5735    0.7262 H   0  0  0  0  0  0  0  0  0  0  0  0
    4.5132   -1.9846    2.1355 H   0  0  0  0  0  0  0  0  0  0  0  0
    4.9089   -0.6143    1.0870 H   0  0  0  0  0  0  0  0  0  0  0  0
    5.0466   -2.2719    0.4720 H   0  0  0  0  0  0  0  0  0  0  0  0
   -2.5456   -2.5276   -0.9528 H   0  0  0  0  0  0  0  0  0  0  0  0
   -3.6138   -1.5769   -2.0418 H   0  0  0  0  0  0  0  0  0  0  0  0
   -4.3110   -2.6599   -0.8193 H   0  0  0  0  0  0  0  0  0  0  0  0
  1  7  1  0  0  0  0
  1 12  1  0  0  0  0
  2 12  2  0  0  0  0
  3  4  1  0  0  0  0
  3  5  1  0  0  0  0
  3 14  1  0  0  0  0
  3 15  1  0  0  0  0
  4  6  1  0  0  0  0
  4 16  1  0  0  0  0
  4 17  1  0  0  0  0
  5  7  1  0  0  0  0
  5 18  1  0  0  0  0
  5 19  1  0  0  0  0
  6  8  1  0  0  0  0
  6 20  1  0  0  0  0
  6 21  1  0  0  0  0
  7 22  1  0  0  0  0
  7 23  1  0  0  0  0
  8  9  2  0  0  0  0
  8 24  1  0  0  0  0
  9 10  1  0  0  0  0
  9 25  1  0  0  0  0
 10 11  1  0  0  0  0
 10 26  1  0  0  0  0
 10 27  1  0  0  0  0
 11 28  1  0  0  0  0
 11 29  1  0  0  0  0
 11 30  1  0  0  0  0
 12 13  1  0  0  0  0
 13 31  1  0  0  0  0
 13 32  1  0  0  0  0
 13 33  1  0  0  0  0
M  END
> <PUBCHEM_COMPOUND_CID>
5363389

> <PUBCHEM_CONFORMER_RMSD>
1

> <PUBCHEM_CONFORMER_DIVERSEORDER>
12
434
159
282
471
62
497
455
89
24
140
200
167
129
27
307
225
315
72
483
402
39
403
1
263
40
35
6
478
2
4
287
174
169
429
3
449
73
499
131
406
249
396
302
57
34
221
18
343
448
59
22
19
33
53
166
354
502
30
305
427
45
399
390
397
284
132
119
244
5
312
335
36
165
46
90
152
21
146
418
55
306
356
115
7
155
29
400
475
58

> <PUBCHEM_MMFF94_PARTIAL_CHARGES>
11
1 -0.43
10 0.14
12 0.66
13 0.06
2 -0.57
24 0.15
25 0.15
6 0.14
7 0.28
8 -0.29
9 -0.29

> <PUBCHEM_EFFECTIVE_ROTOR_COUNT>
8

> <PUBCHEM_PHARMACOPHORE_FEATURES>
3
1 11 hydrophobe
1 2 acceptor
5 3 4 5 6 8 hydrophobe

> <PUBCHEM_HEAVY_ATOM_COUNT>
13

> <PUBCHEM_ATOM_DEF_STEREO_COUNT>
0

> <PUBCHEM_ATOM_UDEF_STEREO_COUNT>
0

> <PUBCHEM_BOND_DEF_STEREO_COUNT>
1

> <PUBCHEM_BOND_UDEF_STEREO_COUNT>
0

> <PUBCHEM_ISOTOPIC_ATOM_COUNT>
0

> <PUBCHEM_COMPONENT_COUNT>
1

> <PUBCHEM_CACTVS_TAUTO_COUNT>
1

> <PUBCHEM_CONFORMER_ID>
0051D6BD0000000C

> <PUBCHEM_MMFF94_ENERGY>
5.364

> <PUBCHEM_FEATURE_SELFOVERLAP>
15.223

> <PUBCHEM_SHAPE_FINGERPRINT>
11769659 78 18410856555350512829
12553582 1 18343589542222690087
13897977 13 10087629425685684509
14178342 30 17985835817691796416
14251705 54 18268716017328432062
15375462 189 18271251637244519129
18186145 218 13695881306682254828
18342897 69 18271812306602032729
20291156 8 18412267237448184621
20442098 301 18060140954935322789
20621476 51 17988066881351298711
20621476 91 18192121894807973066
20645477 70 18341896346092918973
21354914 74 18335421261992678296
22485316 2 18342740766796908389
235170 7 16515964877788851479
23532345 88 18040158409554276732
556388 4 18266734869289987431
5902787 121 18343021051978020296
85463 6 18200013084700681934

> <PUBCHEM_SHAPE_MULTIPOLES>
255.8
8.87
2.53
1.06
2.34
0.25
0.05
-6.27
-1.17
-0.19
-0.02
-0.41
-0.37
-1.33

> <PUBCHEM_SHAPE_SELFOVERLAP>
469.906

> <PUBCHEM_SHAPE_VOLUME>
161.4

> <PUBCHEM_COORDINATE_TYPE>
2
5
10

$$$$
