5363120
  -OEChem-11232109113D

 31 30  0     0  0  0  0  0  0999 V2000
    2.8706   -0.3961   -0.2169 O   0  0  0  0  0  0  0  0  0  0  0  0
    4.9858    0.3406    0.3492 O   0  0  0  0  0  0  0  0  0  0  0  0
   -2.3485    0.7847    0.8005 C   0  0  0  0  0  0  0  0  0  0  0  0
   -1.4620    1.4530   -0.2561 C   0  0  0  0  0  0  0  0  0  0  0  0
   -3.8135    0.8802    0.4779 C   0  0  0  0  0  0  0  0  0  0  0  0
   -0.0064    1.4559    0.1169 C   0  0  0  0  0  0  0  0  0  0  0  0
   -4.4914   -0.0606   -0.1964 C   0  0  0  0  0  0  0  0  0  0  0  0
   -3.8716   -1.3254   -0.7125 C   0  0  0  0  0  0  0  0  0  0  0  0
    0.9613    0.9365   -0.6527 C   0  0  0  0  0  0  0  0  0  0  0  0
    2.4084    0.9457   -0.2840 C   0  0  0  0  0  0  0  0  0  0  0  0
   -3.9536   -2.4424    0.3161 C   0  0  0  0  0  0  0  0  0  0  0  0
    4.1886   -0.5569    0.1124 C   0  0  0  0  0  0  0  0  0  0  0  0
    4.5324   -2.0152    0.1456 C   0  0  0  0  0  0  0  0  0  0  0  0
   -2.0328   -0.2542    0.9484 H   0  0  0  0  0  0  0  0  0  0  0  0
   -2.1926    1.2711    1.7727 H   0  0  0  0  0  0  0  0  0  0  0  0
   -1.6093    0.9639   -1.2271 H   0  0  0  0  0  0  0  0  0  0  0  0
   -1.7762    2.4968   -0.3851 H   0  0  0  0  0  0  0  0  0  0  0  0
   -4.3401    1.7720    0.8067 H   0  0  0  0  0  0  0  0  0  0  0  0
    0.2554    1.9233    1.0630 H   0  0  0  0  0  0  0  0  0  0  0  0
   -5.5528    0.0865   -0.3774 H   0  0  0  0  0  0  0  0  0  0  0  0
   -4.4073   -1.6270   -1.6206 H   0  0  0  0  0  0  0  0  0  0  0  0
   -2.8310   -1.1760   -1.0184 H   0  0  0  0  0  0  0  0  0  0  0  0
    0.7005    0.4782   -1.6035 H   0  0  0  0  0  0  0  0  0  0  0  0
    2.5707    1.4383    0.6821 H   0  0  0  0  0  0  0  0  0  0  0  0
    2.9678    1.4877   -1.0553 H   0  0  0  0  0  0  0  0  0  0  0  0
   -3.5226   -3.3620   -0.0927 H   0  0  0  0  0  0  0  0  0  0  0  0
   -4.9937   -2.6520    0.5890 H   0  0  0  0  0  0  0  0  0  0  0  0
   -3.4071   -2.1935    1.2313 H   0  0  0  0  0  0  0  0  0  0  0  0
    4.3675   -2.4571   -0.8403 H   0  0  0  0  0  0  0  0  0  0  0  0
    3.9262   -2.5215    0.9010 H   0  0  0  0  0  0  0  0  0  0  0  0
    5.5874   -2.1335    0.4085 H   0  0  0  0  0  0  0  0  0  0  0  0
  1 10  1  0  0  0  0
  1 12  1  0  0  0  0
  2 12  2  0  0  0  0
  3  4  1  0  0  0  0
  3  5  1  0  0  0  0
  3 14  1  0  0  0  0
  3 15  1  0  0  0  0
  4  6  1  0  0  0  0
  4 16  1  0  0  0  0
  4 17  1  0  0  0  0
  5  7  2  0  0  0  0
  5 18  1  0  0  0  0
  6  9  2  0  0  0  0
  6 19  1  0  0  0  0
  7  8  1  0  0  0  0
  7 20  1  0  0  0  0
  8 11  1  0  0  0  0
  8 21  1  0  0  0  0
  8 22  1  0  0  0  0
  9 10  1  0  0  0  0
  9 23  1  0  0  0  0
 10 24  1  0  0  0  0
 10 25  1  0  0  0  0
 11 26  1  0  0  0  0
 11 27  1  0  0  0  0
 11 28  1  0  0  0  0
 12 13  1  0  0  0  0
 13 29  1  0  0  0  0
 13 30  1  0  0  0  0
 13 31  1  0  0  0  0
M  END
> <PUBCHEM_COMPOUND_CID>
5363120

> <PUBCHEM_CONFORMER_RMSD>
0.8

> <PUBCHEM_CONFORMER_DIVERSEORDER>
5
100
190
36
183
106
157
40
166
110
29
182
10
218
184
30
230
122
236
25
20
105
49
180
103
85
88
241
174
161
249
53
24
104
59
107
94
147
167
65
260
232
137
21
66
181
39
212
19
231
198
41
101
70
84
50
114
256
75
47
141
54
201
138
192
128
235
112
120
48
4
46
98
121
117
240
193
113
22
195
62
96
89
204
158
125
189
63
6
244
197
87
99
165
150
139
127
37
208
178
262
199
93
152
214
176
151
259
243
169
115
74
119
129
216
69
56
123
38
222
255
108
73
43
233
7
42
82
2
109
226
91
210
202
187
64
191
68
26
251
61
237
136
194
170
67
153
196
81
78
168
33
116
143
175
130
135
132
164
179
211
102
160
90
186
124
71
72
239
45
142
173
14
162
13
118
252
144
9
133
215
131
76
60
8
77
79
209
97
12
3
225
188
111
17
55
245
171
1
11
217
57
134
86
213
52
126
149
203
44
154
23
58
16
238
140
146
261
80
95
35
83
248
92
207
223
254
51
250
156
247
242
18
31
148
34
28
159
234
253
200
155
220
185
258
224
172
145
163
177
219
15
227
257
229
228
27
205
32
221
206
246

> <PUBCHEM_MMFF94_PARTIAL_CHARGES>
16
1 -0.43
10 0.42
12 0.66
13 0.06
18 0.15
19 0.15
2 -0.57
20 0.15
23 0.15
3 0.14
4 0.14
5 -0.29
6 -0.29
7 -0.29
8 0.14
9 -0.29

> <PUBCHEM_EFFECTIVE_ROTOR_COUNT>
7

> <PUBCHEM_PHARMACOPHORE_FEATURES>
3
1 11 hydrophobe
1 2 acceptor
4 3 4 5 6 hydrophobe

> <PUBCHEM_HEAVY_ATOM_COUNT>
13

> <PUBCHEM_ATOM_DEF_STEREO_COUNT>
0

> <PUBCHEM_ATOM_UDEF_STEREO_COUNT>
0

> <PUBCHEM_BOND_DEF_STEREO_COUNT>
2

> <PUBCHEM_BOND_UDEF_STEREO_COUNT>
0

> <PUBCHEM_ISOTOPIC_ATOM_COUNT>
0

> <PUBCHEM_COMPONENT_COUNT>
1

> <PUBCHEM_CACTVS_TAUTO_COUNT>
1

> <PUBCHEM_CONFORMER_ID>
0051D5B000000005

> <PUBCHEM_MMFF94_ENERGY>
5.679

> <PUBCHEM_FEATURE_SELFOVERLAP>
15.223

> <PUBCHEM_SHAPE_FINGERPRINT>
10803635 8 17967520260623648375
11046707 91 18411700989176313577
11159736 12 18411415128906073095
12346645 44 10015589393668984973
12410352 35 18335414643152994530
12555020 224 18409157810834944255
12916748 109 9295280660057835933
13167823 11 18410575084684184440
13255334 9 18340493266192992510
13897977 58 8574713503635509733
13911882 115 17917439713623719254
14123255 352 9655585097447435811
14123260 362 9151170974035267029
1420 369 18411423933620860151
14252887 29 16773525403834032596
15239154 128 9367349231931815666
15352361 1 18410292531839792871
15880784 105 18272934903932076858
17834072 33 18336269024239305332
17959699 21 8790879692579037422
18186145 218 14923948993793327765
18915474 69 18333733541355274964
20281475 54 18409454721333545549
20621476 91 18264746888142613776
20645477 70 17313396638179205192
20828058 44 18131352994582991461
21673915 165 18411980252261002878
22485316 2 18410292488774114344
23402539 116 16877940507942929484
23403322 49 18409167731781986771
23559900 14 18341323487566095377
27216 239 10735887183803151519
32948 21 12973598928794155860
351380 3 18187368696607104483
4283 87 18261384529470962034
559249 180 18338795620624126415
59345606 119 18341615940441602447
7062679 117 18410296930012625268
7062679 6 10231742414854537434

> <PUBCHEM_SHAPE_MULTIPOLES>
255.8
11.95
2.19
0.78
6.39
1.32
0
6.46
-0.72
-0.95
-0.08
-0.32
-0.03
-0.45

> <PUBCHEM_SHAPE_SELFOVERLAP>
474.929

> <PUBCHEM_SHAPE_VOLUME>
160

> <PUBCHEM_COORDINATE_TYPE>
2
5
10

$$$$
