5364517
  -OEChem-11232108483D

 22 21  0     0  0  0  0  0  0999 V2000
    2.5114   -0.8444   -0.9545 O   0  0  0  0  0  0  0  0  0  0  0  0
   -1.2398    0.1063   -0.7054 C   0  0  0  0  0  0  0  0  0  0  0  0
   -2.3416    0.0794    0.3543 C   0  0  0  0  0  0  0  0  0  0  0  0
   -0.2938    1.2490   -0.4763 C   0  0  0  0  0  0  0  0  0  0  0  0
    1.2595   -0.0984    0.9631 C   0  0  0  0  0  0  0  0  0  0  0  0
    0.8192    1.1583    0.2665 C   0  0  0  0  0  0  0  0  0  0  0  0
   -3.3192   -1.0599    0.1110 C   0  0  0  0  0  0  0  0  0  0  0  0
    2.6044   -0.5903    0.4413 C   0  0  0  0  0  0  0  0  0  0  0  0
   -0.7237   -0.8574   -0.7639 H   0  0  0  0  0  0  0  0  0  0  0  0
   -1.6932    0.2444   -1.6957 H   0  0  0  0  0  0  0  0  0  0  0  0
   -1.9052   -0.0350    1.3538 H   0  0  0  0  0  0  0  0  0  0  0  0
   -2.8907    1.0290    0.3504 H   0  0  0  0  0  0  0  0  0  0  0  0
   -0.5453    2.2047   -0.9286 H   0  0  0  0  0  0  0  0  0  0  0  0
    1.3556    0.1217    2.0333 H   0  0  0  0  0  0  0  0  0  0  0  0
    0.5296   -0.9080    0.8879 H   0  0  0  0  0  0  0  0  0  0  0  0
    1.4403    2.0420    0.3880 H   0  0  0  0  0  0  0  0  0  0  0  0
   -4.0998   -1.0600    0.8781 H   0  0  0  0  0  0  0  0  0  0  0  0
   -2.8092   -2.0279    0.1452 H   0  0  0  0  0  0  0  0  0  0  0  0
   -3.8029   -0.9599   -0.8659 H   0  0  0  0  0  0  0  0  0  0  0  0
    2.9065   -1.5125    0.9476 H   0  0  0  0  0  0  0  0  0  0  0  0
    3.3883    0.1576    0.5991 H   0  0  0  0  0  0  0  0  0  0  0  0
    1.8262   -1.5223   -1.0836 H   0  0  0  0  0  0  0  0  0  0  0  0
  1  8  1  0  0  0  0
  1 22  1  0  0  0  0
  2  3  1  0  0  0  0
  2  4  1  0  0  0  0
  2  9  1  0  0  0  0
  2 10  1  0  0  0  0
  3  7  1  0  0  0  0
  3 11  1  0  0  0  0
  3 12  1  0  0  0  0
  4  6  2  0  0  0  0
  4 13  1  0  0  0  0
  5  6  1  0  0  0  0
  5  8  1  0  0  0  0
  5 14  1  0  0  0  0
  5 15  1  0  0  0  0
  6 16  1  0  0  0  0
  7 17  1  0  0  0  0
  7 18  1  0  0  0  0
  7 19  1  0  0  0  0
  8 20  1  0  0  0  0
  8 21  1  0  0  0  0
M  END
> <PUBCHEM_COMPOUND_CID>
5364517

> <PUBCHEM_CONFORMER_RMSD>
0.6

> <PUBCHEM_CONFORMER_DIVERSEORDER>
12
5
47
29
40
30
49
26
32
33
27
7
37
39
46
34
14
8
28
21
45
9
23
18
43
36
38
15
3
31
44
16
6
20
22
42
4
35
48
17
25
13
11
41
1
10
19
2
24

> <PUBCHEM_MMFF94_PARTIAL_CHARGES>
9
1 -0.68
13 0.15
16 0.15
2 0.14
22 0.4
4 -0.29
5 0.14
6 -0.29
8 0.28

> <PUBCHEM_EFFECTIVE_ROTOR_COUNT>
4

> <PUBCHEM_PHARMACOPHORE_FEATURES>
3
1 1 acceptor
1 1 donor
1 7 hydrophobe

> <PUBCHEM_HEAVY_ATOM_COUNT>
8

> <PUBCHEM_ATOM_DEF_STEREO_COUNT>
0

> <PUBCHEM_ATOM_UDEF_STEREO_COUNT>
0

> <PUBCHEM_BOND_DEF_STEREO_COUNT>
1

> <PUBCHEM_BOND_UDEF_STEREO_COUNT>
0

> <PUBCHEM_ISOTOPIC_ATOM_COUNT>
0

> <PUBCHEM_COMPONENT_COUNT>
1

> <PUBCHEM_CACTVS_TAUTO_COUNT>
1

> <PUBCHEM_CONFORMER_ID>
0051DB250000000C

> <PUBCHEM_MMFF94_ENERGY>
1.2036

> <PUBCHEM_FEATURE_SELFOVERLAP>
15.223

> <PUBCHEM_SHAPE_FINGERPRINT>
12897270 3 14706928427794374699
14128692 85 18113624494702913941
14390081 3 9007064569273136811
177051 138 18130224982042966639
17834069 15 16773248262209966849
20651381 17 12103558650394546025
20711978 78 18198047265353108941
21293036 1 14634873076151323067
29004967 10 18060127713867725152

> <PUBCHEM_SHAPE_MULTIPOLES>
158.77
4.71
1.24
0.95
1.67
0.22
0.05
-2.43
0.01
0.03
0.06
-0.34
-0.07
0.2

> <PUBCHEM_SHAPE_SELFOVERLAP>
281.69

> <PUBCHEM_SHAPE_VOLUME>
103.7

> <PUBCHEM_COORDINATE_TYPE>
2
5
10

$$$$
