5364949
  -OEChem-11232109013D

 40 39  0     0  0  0  0  0  0999 V2000
   -7.0371    1.2960   -0.4718 O   0  0  0  0  0  0  0  0  0  0  0  0
    1.7994   -0.6162   -0.0593 C   0  0  0  0  0  0  0  0  0  0  0  0
    3.0316    0.2928    0.0069 C   0  0  0  0  0  0  0  0  0  0  0  0
    0.4754    0.1518   -0.0551 C   0  0  0  0  0  0  0  0  0  0  0  0
    4.3907   -0.4134   -0.0220 C   0  0  0  0  0  0  0  0  0  0  0  0
   -0.7548   -0.7605   -0.1188 C   0  0  0  0  0  0  0  0  0  0  0  0
    5.5779    0.5419    0.1134 C   0  0  0  0  0  0  0  0  0  0  0  0
   -2.0790    0.0077   -0.1908 C   0  0  0  0  0  0  0  0  0  0  0  0
    6.9063   -0.2050   -0.0148 C   0  0  0  0  0  0  0  0  0  0  0  0
   -3.3013   -0.9158   -0.2465 C   0  0  0  0  0  0  0  0  0  0  0  0
    8.0913    0.7332    0.1511 C   0  0  0  0  0  0  0  0  0  0  0  0
   -4.6007   -0.1632   -0.2945 C   0  0  0  0  0  0  0  0  0  0  0  0
   -5.5905   -0.3311    0.5959 C   0  0  0  0  0  0  0  0  0  0  0  0
   -6.9091    0.3818    0.6062 C   0  0  0  0  0  0  0  0  0  0  0  0
    1.8197   -1.3076    0.7919 H   0  0  0  0  0  0  0  0  0  0  0  0
    1.8578   -1.2295   -0.9667 H   0  0  0  0  0  0  0  0  0  0  0  0
    2.9900    1.0021   -0.8297 H   0  0  0  0  0  0  0  0  0  0  0  0
    2.9696    0.8940    0.9231 H   0  0  0  0  0  0  0  0  0  0  0  0
    0.4579    0.8383   -0.9105 H   0  0  0  0  0  0  0  0  0  0  0  0
    0.4174    0.7704    0.8489 H   0  0  0  0  0  0  0  0  0  0  0  0
    4.4274   -1.1515    0.7887 H   0  0  0  0  0  0  0  0  0  0  0  0
    4.4760   -0.9723   -0.9621 H   0  0  0  0  0  0  0  0  0  0  0  0
   -0.6731   -1.4129   -0.9970 H   0  0  0  0  0  0  0  0  0  0  0  0
   -0.7620   -1.4142    0.7621 H   0  0  0  0  0  0  0  0  0  0  0  0
    5.5169    1.3157   -0.6613 H   0  0  0  0  0  0  0  0  0  0  0  0
    5.5284    1.0508    1.0836 H   0  0  0  0  0  0  0  0  0  0  0  0
   -2.0709    0.6579   -1.0748 H   0  0  0  0  0  0  0  0  0  0  0  0
   -2.1592    0.6654    0.6840 H   0  0  0  0  0  0  0  0  0  0  0  0
    6.9669   -0.6923   -0.9949 H   0  0  0  0  0  0  0  0  0  0  0  0
    6.9646   -0.9939    0.7442 H   0  0  0  0  0  0  0  0  0  0  0  0
   -3.2806   -1.5947    0.6149 H   0  0  0  0  0  0  0  0  0  0  0  0
   -3.2371   -1.5441   -1.1433 H   0  0  0  0  0  0  0  0  0  0  0  0
    8.0803    1.5177   -0.6123 H   0  0  0  0  0  0  0  0  0  0  0  0
    9.0301    0.1787    0.0550 H   0  0  0  0  0  0  0  0  0  0  0  0
    8.0784    1.2113    1.1358 H   0  0  0  0  0  0  0  0  0  0  0  0
   -4.7202    0.5387   -1.1153 H   0  0  0  0  0  0  0  0  0  0  0  0
   -5.4476   -1.0458    1.4038 H   0  0  0  0  0  0  0  0  0  0  0  0
   -7.0168    0.9358    1.5441 H   0  0  0  0  0  0  0  0  0  0  0  0
   -7.7197   -0.3503    0.5361 H   0  0  0  0  0  0  0  0  0  0  0  0
   -7.9125    1.7119   -0.3918 H   0  0  0  0  0  0  0  0  0  0  0  0
  1 14  1  0  0  0  0
  1 40  1  0  0  0  0
  2  3  1  0  0  0  0
  2  4  1  0  0  0  0
  2 15  1  0  0  0  0
  2 16  1  0  0  0  0
  3  5  1  0  0  0  0
  3 17  1  0  0  0  0
  3 18  1  0  0  0  0
  4  6  1  0  0  0  0
  4 19  1  0  0  0  0
  4 20  1  0  0  0  0
  5  7  1  0  0  0  0
  5 21  1  0  0  0  0
  5 22  1  0  0  0  0
  6  8  1  0  0  0  0
  6 23  1  0  0  0  0
  6 24  1  0  0  0  0
  7  9  1  0  0  0  0
  7 25  1  0  0  0  0
  7 26  1  0  0  0  0
  8 10  1  0  0  0  0
  8 27  1  0  0  0  0
  8 28  1  0  0  0  0
  9 11  1  0  0  0  0
  9 29  1  0  0  0  0
  9 30  1  0  0  0  0
 10 12  1  0  0  0  0
 10 31  1  0  0  0  0
 10 32  1  0  0  0  0
 11 33  1  0  0  0  0
 11 34  1  0  0  0  0
 11 35  1  0  0  0  0
 12 13  2  0  0  0  0
 12 36  1  0  0  0  0
 13 14  1  0  0  0  0
 13 37  1  0  0  0  0
 14 38  1  0  0  0  0
 14 39  1  0  0  0  0
M  END
> <PUBCHEM_COMPOUND_CID>
5364949

> <PUBCHEM_CONFORMER_RMSD>
1

> <PUBCHEM_CONFORMER_DIVERSEORDER>
1
37
109
73
46
71
33
5
128
56
23
49
13
125
65
134
42
93
92
7
45
100
17
6
47
91
11
67
132
110
51
123
38
81
96
138
25
135
32
80
4
75
43
95
126
20
34
61
40
22
74
103
18
119
88
66
21
77
35
97
29
105
55
39
114
113
50
99
12
30
86
52
16
9
136
3
19
117
137
24
60
53
62
116
44
89
130
107
15
108
2
79
68
139
10
70
28
98
54
26
69
36
63
59
82
118
41
48
8
106
129
101
31
72
124
120
14
83
78
85
94
90
127
111
104
27
122
121
57
76
112
131
87
64
102
84
133
58
115

> <PUBCHEM_MMFF94_PARTIAL_CHARGES>
8
1 -0.68
10 0.14
12 -0.29
13 -0.29
14 0.42
36 0.15
37 0.15
40 0.4

> <PUBCHEM_EFFECTIVE_ROTOR_COUNT>
10

> <PUBCHEM_PHARMACOPHORE_FEATURES>
3
1 1 acceptor
1 1 donor
1 11 hydrophobe

> <PUBCHEM_HEAVY_ATOM_COUNT>
14

> <PUBCHEM_ATOM_DEF_STEREO_COUNT>
0

> <PUBCHEM_ATOM_UDEF_STEREO_COUNT>
0

> <PUBCHEM_BOND_DEF_STEREO_COUNT>
1

> <PUBCHEM_BOND_UDEF_STEREO_COUNT>
0

> <PUBCHEM_ISOTOPIC_ATOM_COUNT>
0

> <PUBCHEM_COMPONENT_COUNT>
1

> <PUBCHEM_CACTVS_TAUTO_COUNT>
1

> <PUBCHEM_CONFORMER_ID>
0051DCD500000001

> <PUBCHEM_MMFF94_ENERGY>
-1.3748

> <PUBCHEM_FEATURE_SELFOVERLAP>
15.223

> <PUBCHEM_SHAPE_FINGERPRINT>
10066227 49 9295024461555116512
11315181 36 16702023110370560659
12091667 2 18410292523919686839
13073987 5 15574980729204817162
13533116 47 18201998781996274818
14123256 10 9511463320554046541
1420 363 12107789597060843737
14251718 22 10015866474883218959
14251764 18 18113616793926843898
14251764 46 18410575088963346955
14428016 248 17458354048394595412
14729087 3 18412824668848944721
15048467 5 18272652350406813035
15690457 1 11602822418978709353
15716309 27 13840266995992912731
17093844 174 18334576858996306067
17834072 8 15052013467928907323
17834076 25 17704072901904575690
18006028 8 12679464183791410330
20281389 69 18408319982615992824
20621476 8 18413390917331760462
20735858 18 14707206621832731458
21130983 4 18409168831293588564
21150785 3 13614520761909700617
21304253 13 18410011056721255356
220451 1 17603579751387766314
22224240 67 16370724855137059306
22896161 15 8070025567014865686
23035841 295 14273458084815155993
23402539 116 17418088845087975111
23521765 1 18413952793379775250
246663 6 12468636119262960248
28498 318 17988928838991456110
33532 11 7997700796500802384
33684 2 11312059841878320839
42788 4 18413670227460317894
4463277 17 18410573993815420653
57583515 80 15267345128190368535
59567204 34 18270681966443538897
59682541 35 17458068200281171609
8209 1 11095885964822222154

> <PUBCHEM_SHAPE_MULTIPOLES>
282.24
24.47
0.93
0.69
8.38
0.05
0.02
7.02
1.85
-0.48
-0.05
-0.42
0.02
0.21

> <PUBCHEM_SHAPE_SELFOVERLAP>
505.152

> <PUBCHEM_SHAPE_VOLUME>
182.2

> <PUBCHEM_COORDINATE_TYPE>
2
5
10

$$$$
