5364497
  -OEChem-11232108453D

 53 52  0     0  0  0  0  0  0999 V2000
    7.5737   -0.8082   -1.1495 O   0  0  0  0  0  0  0  0  0  0  0  0
    0.1757    1.1865   -0.3025 C   0  0  0  0  0  0  0  0  0  0  0  0
   -1.0251    1.7463    0.4628 C   0  0  0  0  0  0  0  0  0  0  0  0
    1.4859    1.2542    0.4903 C   0  0  0  0  0  0  0  0  0  0  0  0
   -2.3118    1.6466   -0.3616 C   0  0  0  0  0  0  0  0  0  0  0  0
    2.7213    0.6815   -0.2134 C   0  0  0  0  0  0  0  0  0  0  0  0
   -3.5336    2.2198    0.3652 C   0  0  0  0  0  0  0  0  0  0  0  0
    4.0075    0.8274    0.6030 C   0  0  0  0  0  0  0  0  0  0  0  0
   -4.8066    2.1871   -0.4866 C   0  0  0  0  0  0  0  0  0  0  0  0
    5.2424    0.2624   -0.1101 C   0  0  0  0  0  0  0  0  0  0  0  0
   -5.2496    0.7732   -0.8726 C   0  0  0  0  0  0  0  0  0  0  0  0
    6.5287    0.3122    0.7107 C   0  0  0  0  0  0  0  0  0  0  0  0
   -5.4764   -0.1328    0.3028 C   0  0  0  0  0  0  0  0  0  0  0  0
   -3.8553   -1.9955   -0.3197 C   0  0  0  0  0  0  0  0  0  0  0  0
   -4.8822   -1.3127    0.5382 C   0  0  0  0  0  0  0  0  0  0  0  0
   -2.5594   -2.3063    0.4398 C   0  0  0  0  0  0  0  0  0  0  0  0
   -1.4925   -2.9774   -0.4286 C   0  0  0  0  0  0  0  0  0  0  0  0
    7.6800   -0.3154   -0.0310 C   0  0  0  0  0  0  0  0  0  0  0  0
   -0.2226   -3.2491    0.3628 C   0  0  0  0  0  0  0  0  0  0  0  0
    0.2992    1.7389   -1.2421 H   0  0  0  0  0  0  0  0  0  0  0  0
   -0.0213    0.1419   -0.5730 H   0  0  0  0  0  0  0  0  0  0  0  0
   -1.1503    1.1959    1.4029 H   0  0  0  0  0  0  0  0  0  0  0  0
   -0.8361    2.7943    0.7240 H   0  0  0  0  0  0  0  0  0  0  0  0
    1.3492    0.7232    1.4411 H   0  0  0  0  0  0  0  0  0  0  0  0
    1.6827    2.3027    0.7476 H   0  0  0  0  0  0  0  0  0  0  0  0
   -2.1742    2.1862   -1.3070 H   0  0  0  0  0  0  0  0  0  0  0  0
   -2.4794    0.5983   -0.6198 H   0  0  0  0  0  0  0  0  0  0  0  0
    2.5472   -0.3789   -0.4329 H   0  0  0  0  0  0  0  0  0  0  0  0
    2.8485    1.1879   -1.1780 H   0  0  0  0  0  0  0  0  0  0  0  0
   -3.6876    1.6876    1.3109 H   0  0  0  0  0  0  0  0  0  0  0  0
   -3.3285    3.2644    0.6312 H   0  0  0  0  0  0  0  0  0  0  0  0
    4.1787    1.8869    0.8295 H   0  0  0  0  0  0  0  0  0  0  0  0
    3.8817    0.3135    1.5639 H   0  0  0  0  0  0  0  0  0  0  0  0
   -4.6564    2.7779   -1.3983 H   0  0  0  0  0  0  0  0  0  0  0  0
   -5.6123    2.6778    0.0742 H   0  0  0  0  0  0  0  0  0  0  0  0
    5.3899    0.8084   -1.0510 H   0  0  0  0  0  0  0  0  0  0  0  0
    5.0363   -0.7790   -0.3905 H   0  0  0  0  0  0  0  0  0  0  0  0
   -6.2027    0.8547   -1.4112 H   0  0  0  0  0  0  0  0  0  0  0  0
   -4.5465    0.3590   -1.5985 H   0  0  0  0  0  0  0  0  0  0  0  0
    6.4035   -0.2296    1.6539 H   0  0  0  0  0  0  0  0  0  0  0  0
    6.7971    1.3485    0.9397 H   0  0  0  0  0  0  0  0  0  0  0  0
   -6.2134    0.2089    1.0273 H   0  0  0  0  0  0  0  0  0  0  0  0
   -3.6121   -1.4243   -1.2183 H   0  0  0  0  0  0  0  0  0  0  0  0
   -4.2904   -2.9393   -0.6720 H   0  0  0  0  0  0  0  0  0  0  0  0
   -5.1781   -1.8494    1.4379 H   0  0  0  0  0  0  0  0  0  0  0  0
   -2.1509   -1.3770    0.8565 H   0  0  0  0  0  0  0  0  0  0  0  0
   -2.7879   -2.9561    1.2946 H   0  0  0  0  0  0  0  0  0  0  0  0
   -1.8802   -3.9213   -0.8287 H   0  0  0  0  0  0  0  0  0  0  0  0
   -1.2534   -2.3347   -1.2838 H   0  0  0  0  0  0  0  0  0  0  0  0
    8.6473   -0.3099    0.4993 H   0  0  0  0  0  0  0  0  0  0  0  0
    0.2056   -2.3184    0.7490 H   0  0  0  0  0  0  0  0  0  0  0  0
    0.5265   -3.7278   -0.2756 H   0  0  0  0  0  0  0  0  0  0  0  0
   -0.4224   -3.9133    1.2096 H   0  0  0  0  0  0  0  0  0  0  0  0
  1 18  2  0  0  0  0
  2  3  1  0  0  0  0
  2  4  1  0  0  0  0
  2 20  1  0  0  0  0
  2 21  1  0  0  0  0
  3  5  1  0  0  0  0
  3 22  1  0  0  0  0
  3 23  1  0  0  0  0
  4  6  1  0  0  0  0
  4 24  1  0  0  0  0
  4 25  1  0  0  0  0
  5  7  1  0  0  0  0
  5 26  1  0  0  0  0
  5 27  1  0  0  0  0
  6  8  1  0  0  0  0
  6 28  1  0  0  0  0
  6 29  1  0  0  0  0
  7  9  1  0  0  0  0
  7 30  1  0  0  0  0
  7 31  1  0  0  0  0
  8 10  1  0  0  0  0
  8 32  1  0  0  0  0
  8 33  1  0  0  0  0
  9 11  1  0  0  0  0
  9 34  1  0  0  0  0
  9 35  1  0  0  0  0
 10 12  1  0  0  0  0
 10 36  1  0  0  0  0
 10 37  1  0  0  0  0
 11 13  1  0  0  0  0
 11 38  1  0  0  0  0
 11 39  1  0  0  0  0
 12 18  1  0  0  0  0
 12 40  1  0  0  0  0
 12 41  1  0  0  0  0
 13 15  2  0  0  0  0
 13 42  1  0  0  0  0
 14 15  1  0  0  0  0
 14 16  1  0  0  0  0
 14 43  1  0  0  0  0
 14 44  1  0  0  0  0
 15 45  1  0  0  0  0
 16 17  1  0  0  0  0
 16 46  1  0  0  0  0
 16 47  1  0  0  0  0
 17 19  1  0  0  0  0
 17 48  1  0  0  0  0
 17 49  1  0  0  0  0
 18 50  1  0  0  0  0
 19 51  1  0  0  0  0
 19 52  1  0  0  0  0
 19 53  1  0  0  0  0
M  END
> <PUBCHEM_COMPOUND_CID>
5364497

> <PUBCHEM_CONFORMER_RMSD>
1.2

> <PUBCHEM_CONFORMER_DIVERSEORDER>
1
13
114
157
140
31
123
51
153
71
7
80
122
29
95
146
53
63
26
171
158
142
134
128
127
121
74
170
62
106
97
104
125
110
93
96
90
88
99
156
124
6
101
59
28
47
181
3
4
166
105
160
22
39
79
9
49
149
145
162
20
154
14
34
130
60
91
48
103
164
131
41
144
89
109
40
68
38
94
152
129
45
138
107
52
163
86
137
117
119
111
120
100
67
135
113
147
8
21
180
143
132
17
72
57
55
44
69
102
58
159
92
161
43
173
118
85
27
18
33
19
64
87
30
11
141
98
36
84
108
5
116
42
15
150
133
77
54
151
136
115
46
73
25
81
75
176
177
76
148
168
175
56
82
83
61
78
169
37
167
32
126
165
139
23
174
155
70
35
172
12
2
112
179
178
16
24
66
50
65
10

> <PUBCHEM_MMFF94_PARTIAL_CHARGES>
10
1 -0.57
11 0.14
12 0.06
13 -0.29
14 0.14
15 -0.29
18 0.45
42 0.15
45 0.15
50 0.06

> <PUBCHEM_EFFECTIVE_ROTOR_COUNT>
15

> <PUBCHEM_PHARMACOPHORE_FEATURES>
3
1 1 acceptor
1 19 hydrophobe
4 14 15 16 17 hydrophobe

> <PUBCHEM_HEAVY_ATOM_COUNT>
19

> <PUBCHEM_ATOM_DEF_STEREO_COUNT>
0

> <PUBCHEM_ATOM_UDEF_STEREO_COUNT>
0

> <PUBCHEM_BOND_DEF_STEREO_COUNT>
1

> <PUBCHEM_BOND_UDEF_STEREO_COUNT>
0

> <PUBCHEM_ISOTOPIC_ATOM_COUNT>
0

> <PUBCHEM_COMPONENT_COUNT>
1

> <PUBCHEM_CACTVS_TAUTO_COUNT>
2

> <PUBCHEM_CONFORMER_ID>
0051DB1100000001

> <PUBCHEM_MMFF94_ENERGY>
-0.3028

> <PUBCHEM_FEATURE_SELFOVERLAP>
15.223

> <PUBCHEM_SHAPE_FINGERPRINT>
11524674 6 17918269852864604566
13111901 25 18189042119989937770
14251740 79 18342459261623175171
14251752 14 18333448751138617426
14251757 5 18120386607415054933
15183329 4 18408881845710670874
16719943 64 18408320012222224538
20721686 56 18408326567028094475
21236236 1 18411136948042528488
23559900 14 18269829977062993064
338550 245 18333453149021747846
445580 160 18413392042423248910
559249 180 18333729113244155240
57307002 103 18059009631371846928
59755656 215 18412545388695545990
59755656 520 18336259063951306380
6138700 20 18338796823321029435
6437827 68 18411136926889815570
9862886 166 18342176678518781280

> <PUBCHEM_SHAPE_MULTIPOLES>
385.14
18.92
3.36
0.86
38.39
2.53
0.05
-0.24
1.92
-4.78
-0.05
0.2
0.01
0.9

> <PUBCHEM_SHAPE_SELFOVERLAP>
700.472

> <PUBCHEM_SHAPE_VOLUME>
244.7

> <PUBCHEM_COORDINATE_TYPE>
2
5
10

$$$$
