5364998
  -OEChem-11232109443D

 40 39  0     0  0  0  0  0  0999 V2000
   -5.3833   -2.3921    0.0776 O   0  0  0  0  0  0  0  0  0  0  0  0
    1.5117    0.5234   -0.4305 C   0  0  0  0  0  0  0  0  0  0  0  0
    2.7480   -0.0221    0.2926 C   0  0  0  0  0  0  0  0  0  0  0  0
    0.2080    0.3001    0.3397 C   0  0  0  0  0  0  0  0  0  0  0  0
    4.0901    0.1943   -0.4133 C   0  0  0  0  0  0  0  0  0  0  0  0
   -1.0267    0.8446   -0.3876 C   0  0  0  0  0  0  0  0  0  0  0  0
    5.2758   -0.4296    0.3251 C   0  0  0  0  0  0  0  0  0  0  0  0
   -2.3232    0.6901    0.4149 C   0  0  0  0  0  0  0  0  0  0  0  0
    6.5965   -0.1039   -0.3740 C   0  0  0  0  0  0  0  0  0  0  0  0
   -3.5510    1.2314   -0.3263 C   0  0  0  0  0  0  0  0  0  0  0  0
    7.7766   -0.7478    0.3362 C   0  0  0  0  0  0  0  0  0  0  0  0
   -4.8253    1.0599    0.4506 C   0  0  0  0  0  0  0  0  0  0  0  0
   -5.6456    0.0071    0.3104 C   0  0  0  0  0  0  0  0  0  0  0  0
   -5.4517   -1.1556   -0.6155 C   0  0  0  0  0  0  0  0  0  0  0  0
    1.4359    0.0482   -1.4161 H   0  0  0  0  0  0  0  0  0  0  0  0
    1.6473    1.5975   -0.6067 H   0  0  0  0  0  0  0  0  0  0  0  0
    2.8015    0.4342    1.2894 H   0  0  0  0  0  0  0  0  0  0  0  0
    2.6077   -1.0986    0.4543 H   0  0  0  0  0  0  0  0  0  0  0  0
    0.2868    0.7811    1.3225 H   0  0  0  0  0  0  0  0  0  0  0  0
    0.0732   -0.7730    0.5221 H   0  0  0  0  0  0  0  0  0  0  0  0
    4.0338   -0.2258   -1.4251 H   0  0  0  0  0  0  0  0  0  0  0  0
    4.2567    1.2726   -0.5280 H   0  0  0  0  0  0  0  0  0  0  0  0
   -0.8717    1.9070   -0.6129 H   0  0  0  0  0  0  0  0  0  0  0  0
   -1.1321    0.3286   -1.3498 H   0  0  0  0  0  0  0  0  0  0  0  0
    5.3051   -0.0550    1.3555 H   0  0  0  0  0  0  0  0  0  0  0  0
    5.1410   -1.5166    0.3798 H   0  0  0  0  0  0  0  0  0  0  0  0
   -2.2179    1.2095    1.3759 H   0  0  0  0  0  0  0  0  0  0  0  0
   -2.4734   -0.3723    0.6451 H   0  0  0  0  0  0  0  0  0  0  0  0
    6.7437    0.9819   -0.4055 H   0  0  0  0  0  0  0  0  0  0  0  0
    6.5658   -0.4576   -1.4111 H   0  0  0  0  0  0  0  0  0  0  0  0
   -3.6189    0.7877   -1.3248 H   0  0  0  0  0  0  0  0  0  0  0  0
   -3.4144    2.3061   -0.5049 H   0  0  0  0  0  0  0  0  0  0  0  0
    7.8547   -0.3921    1.3685 H   0  0  0  0  0  0  0  0  0  0  0  0
    8.7099   -0.5014   -0.1796 H   0  0  0  0  0  0  0  0  0  0  0  0
    7.6762   -1.8378    0.3548 H   0  0  0  0  0  0  0  0  0  0  0  0
   -5.0772    1.8301    1.1746 H   0  0  0  0  0  0  0  0  0  0  0  0
   -6.5412   -0.0204    0.9277 H   0  0  0  0  0  0  0  0  0  0  0  0
   -4.5488   -1.0777   -1.2241 H   0  0  0  0  0  0  0  0  0  0  0  0
   -6.3060   -1.2012   -1.2997 H   0  0  0  0  0  0  0  0  0  0  0  0
   -5.3006   -3.0926   -0.5918 H   0  0  0  0  0  0  0  0  0  0  0  0
  1 14  1  0  0  0  0
  1 40  1  0  0  0  0
  2  3  1  0  0  0  0
  2  4  1  0  0  0  0
  2 15  1  0  0  0  0
  2 16  1  0  0  0  0
  3  5  1  0  0  0  0
  3 17  1  0  0  0  0
  3 18  1  0  0  0  0
  4  6  1  0  0  0  0
  4 19  1  0  0  0  0
  4 20  1  0  0  0  0
  5  7  1  0  0  0  0
  5 21  1  0  0  0  0
  5 22  1  0  0  0  0
  6  8  1  0  0  0  0
  6 23  1  0  0  0  0
  6 24  1  0  0  0  0
  7  9  1  0  0  0  0
  7 25  1  0  0  0  0
  7 26  1  0  0  0  0
  8 10  1  0  0  0  0
  8 27  1  0  0  0  0
  8 28  1  0  0  0  0
  9 11  1  0  0  0  0
  9 29  1  0  0  0  0
  9 30  1  0  0  0  0
 10 12  1  0  0  0  0
 10 31  1  0  0  0  0
 10 32  1  0  0  0  0
 11 33  1  0  0  0  0
 11 34  1  0  0  0  0
 11 35  1  0  0  0  0
 12 13  2  0  0  0  0
 12 36  1  0  0  0  0
 13 14  1  0  0  0  0
 13 37  1  0  0  0  0
 14 38  1  0  0  0  0
 14 39  1  0  0  0  0
M  END
> <PUBCHEM_COMPOUND_CID>
5364998

> <PUBCHEM_CONFORMER_RMSD>
1.2

> <PUBCHEM_CONFORMER_DIVERSEORDER>
1
31
16
15
34
42
6
7
11
52
18
13
48
26
8
9
47
39
36
38
50
27
46
5
4
23
30
28
10
3
21
49
37
33
32
19
44
20
45
2
14
43
25
40
24
17
22
51
29
35
12
53
41

> <PUBCHEM_MMFF94_PARTIAL_CHARGES>
8
1 -0.68
10 0.14
12 -0.29
13 -0.29
14 0.42
36 0.15
37 0.15
40 0.4

> <PUBCHEM_EFFECTIVE_ROTOR_COUNT>
10

> <PUBCHEM_PHARMACOPHORE_FEATURES>
3
1 1 acceptor
1 1 donor
1 11 hydrophobe

> <PUBCHEM_HEAVY_ATOM_COUNT>
14

> <PUBCHEM_ATOM_DEF_STEREO_COUNT>
0

> <PUBCHEM_ATOM_UDEF_STEREO_COUNT>
0

> <PUBCHEM_BOND_DEF_STEREO_COUNT>
1

> <PUBCHEM_BOND_UDEF_STEREO_COUNT>
0

> <PUBCHEM_ISOTOPIC_ATOM_COUNT>
0

> <PUBCHEM_COMPONENT_COUNT>
1

> <PUBCHEM_CACTVS_TAUTO_COUNT>
1

> <PUBCHEM_CONFORMER_ID>
0051DD0600000001

> <PUBCHEM_MMFF94_ENERGY>
0.4213

> <PUBCHEM_FEATURE_SELFOVERLAP>
15.223

> <PUBCHEM_SHAPE_FINGERPRINT>
10087517 78 10087648091450445059
11287383 113 18202282523966235192
11315181 36 18342177774120615665
117890 112 9295290542898688876
12091667 2 17458629986583486761
13288520 33 18410292528288409741
13533116 47 17241038809301130960
13740256 8 18342175591987072337
13964095 4 11097855185926467704
1420 363 17418096511852596052
14251718 22 18411138030601224736
14251732 16 18342174509708061280
14251764 18 18260830410897981732
14251764 46 17632293462854828604
14729087 3 7925912565230480926
15048467 5 9943806685937589764
15501527 16 9007064569383796207
15716309 27 18343584053249139277
16079462 125 12901547983244081772
17093844 174 16988561282556132065
17834072 33 18334016111527878517
17834072 8 14201117911814678157
17834076 25 18272369750823988480
20621476 66 10087645913669468843
21054139 6 18187644725671174978
21130983 4 12823289109846013818
220451 1 18334016055682422993
22896161 15 18411136965755329420
23035841 295 18411139129833160723
23402539 116 18113336397451239301
23521765 1 18341895165256584464
28498 318 11819267842534681992
33532 11 18336545998765789218
42788 4 17894353250848008980
4325135 7 18259984864295804271
57483677 66 18408884014362914203
7062679 117 18335139808601619467
8209 1 16370729214360228008

> <PUBCHEM_SHAPE_MULTIPOLES>
282.24
21.24
1.36
0.76
20.67
0.74
0.02
7.61
-0.73
-2.86
0.04
-0.04
-0.02
-0.51

> <PUBCHEM_SHAPE_SELFOVERLAP>
505.497

> <PUBCHEM_SHAPE_VOLUME>
182.1

> <PUBCHEM_COORDINATE_TYPE>
2
5
10

$$$$
