5364631
  -OEChem-11232109273D

 28 27  0     0  0  0  0  0  0999 V2000
   -3.9242   -0.7286   -0.0474 O   0  0  0  0  0  0  0  0  0  0  0  0
    1.1976   -0.6056   -0.7266 C   0  0  0  0  0  0  0  0  0  0  0  0
    2.3754   -0.2665    0.1920 C   0  0  0  0  0  0  0  0  0  0  0  0
   -0.0202   -1.1578    0.0217 C   0  0  0  0  0  0  0  0  0  0  0  0
    3.5694    0.2543   -0.6092 C   0  0  0  0  0  0  0  0  0  0  0  0
   -0.5616   -0.2127    1.0554 C   0  0  0  0  0  0  0  0  0  0  0  0
    4.7568    0.5542    0.2919 C   0  0  0  0  0  0  0  0  0  0  0  0
   -1.5251    0.6876    0.8094 C   0  0  0  0  0  0  0  0  0  0  0  0
   -2.1833    0.8635   -0.5301 C   0  0  0  0  0  0  0  0  0  0  0  0
   -3.6848    0.6116   -0.4570 C   0  0  0  0  0  0  0  0  0  0  0  0
    1.5185   -1.3530   -1.4627 H   0  0  0  0  0  0  0  0  0  0  0  0
    0.9065    0.2881   -1.2927 H   0  0  0  0  0  0  0  0  0  0  0  0
    2.0816    0.4940    0.9244 H   0  0  0  0  0  0  0  0  0  0  0  0
    2.6699   -1.1617    0.7532 H   0  0  0  0  0  0  0  0  0  0  0  0
   -0.7868   -1.4766   -0.6917 H   0  0  0  0  0  0  0  0  0  0  0  0
    0.2719   -2.0804    0.5406 H   0  0  0  0  0  0  0  0  0  0  0  0
    3.2865    1.1654   -1.1491 H   0  0  0  0  0  0  0  0  0  0  0  0
    3.8678   -0.4879   -1.3587 H   0  0  0  0  0  0  0  0  0  0  0  0
   -0.1334   -0.2607    2.0531 H   0  0  0  0  0  0  0  0  0  0  0  0
    5.5984    0.9255   -0.3011 H   0  0  0  0  0  0  0  0  0  0  0  0
    4.5023    1.3165    1.0352 H   0  0  0  0  0  0  0  0  0  0  0  0
    5.0851   -0.3461    0.8211 H   0  0  0  0  0  0  0  0  0  0  0  0
   -1.8483    1.3404    1.6161 H   0  0  0  0  0  0  0  0  0  0  0  0
   -2.0173    1.8985   -0.8529 H   0  0  0  0  0  0  0  0  0  0  0  0
   -1.7516    0.2322   -1.3099 H   0  0  0  0  0  0  0  0  0  0  0  0
   -4.1540    0.7682   -1.4335 H   0  0  0  0  0  0  0  0  0  0  0  0
   -4.1668    1.2803    0.2637 H   0  0  0  0  0  0  0  0  0  0  0  0
   -3.5066   -1.3140   -0.7021 H   0  0  0  0  0  0  0  0  0  0  0  0
  1 10  1  0  0  0  0
  1 28  1  0  0  0  0
  2  3  1  0  0  0  0
  2  4  1  0  0  0  0
  2 11  1  0  0  0  0
  2 12  1  0  0  0  0
  3  5  1  0  0  0  0
  3 13  1  0  0  0  0
  3 14  1  0  0  0  0
  4  6  1  0  0  0  0
  4 15  1  0  0  0  0
  4 16  1  0  0  0  0
  5  7  1  0  0  0  0
  5 17  1  0  0  0  0
  5 18  1  0  0  0  0
  6  8  2  0  0  0  0
  6 19  1  0  0  0  0
  7 20  1  0  0  0  0
  7 21  1  0  0  0  0
  7 22  1  0  0  0  0
  8  9  1  0  0  0  0
  8 23  1  0  0  0  0
  9 10  1  0  0  0  0
  9 24  1  0  0  0  0
  9 25  1  0  0  0  0
 10 26  1  0  0  0  0
 10 27  1  0  0  0  0
M  END
> <PUBCHEM_COMPOUND_CID>
5364631

> <PUBCHEM_CONFORMER_RMSD>
0.6

> <PUBCHEM_CONFORMER_DIVERSEORDER>
2
269
197
59
235
25
119
272
300
50
241
295
243
7
35
229
113
100
144
298
212
4
293
176
76
157
224
276
58
147
253
171
15
233
248
114
10
105
291
203
189
255
301
57
77
12
97
137
219
135
145
47
201
61
268
267
283
90
230
45
156
215
280
54
132
123
279
287
188
133
178
161
266
274
259
31
81
83
299
22
213
196
273
252
120
1
56
260
48
264
168
211
246
89
294
220
68
214
70
136
240
158
73
289
104
142
195
86
111
155
278
108
297
27
167
6
202
258
153
9
16
13
49
261
271
226
218
34
51
23
232
277
75
109
247
30
194
173
265
14
204
191
92
270
166
296
190
284
122
239
290
288
128
60
185
94
187
129
238
69
282
11
19
170
257
179
225
182
52
115
209
231
40
80
95
130
85
208
143
42
175
5
285
20
102
99
250
67
110
172
164
24
72
184
227
82
74
216
28
281
53
8
118
121
193
93
134
154
162
186
152
98
177
192
292
96
223
169
141
236
65
88
101
149
117
254
36
44
138
286
263
107
222
18
131
71
160
245
228
249
116
62
165
275
66
174
55
84
198
26
127
21
125
91
146
244
183
106
151
221
199
37
205
64
63
207
148
251
3
112
103
29
140
126
46
79
180
206
124
38
17
139
242
163
78
200
210
159
262
32
39
217
33
150
41
237
43
181
87
234
256

> <PUBCHEM_MMFF94_PARTIAL_CHARGES>
9
1 -0.68
10 0.28
19 0.15
23 0.15
28 0.4
4 0.14
6 -0.29
8 -0.29
9 0.14

> <PUBCHEM_EFFECTIVE_ROTOR_COUNT>
6

> <PUBCHEM_PHARMACOPHORE_FEATURES>
4
1 1 acceptor
1 1 donor
1 7 hydrophobe
5 2 3 4 5 6 hydrophobe

> <PUBCHEM_HEAVY_ATOM_COUNT>
10

> <PUBCHEM_ATOM_DEF_STEREO_COUNT>
0

> <PUBCHEM_ATOM_UDEF_STEREO_COUNT>
0

> <PUBCHEM_BOND_DEF_STEREO_COUNT>
1

> <PUBCHEM_BOND_UDEF_STEREO_COUNT>
0

> <PUBCHEM_ISOTOPIC_ATOM_COUNT>
0

> <PUBCHEM_COMPONENT_COUNT>
1

> <PUBCHEM_CACTVS_TAUTO_COUNT>
1

> <PUBCHEM_CONFORMER_ID>
0051DB9700000002

> <PUBCHEM_MMFF94_ENERGY>
1.1133

> <PUBCHEM_FEATURE_SELFOVERLAP>
20.297

> <PUBCHEM_SHAPE_FINGERPRINT>
11062470 55 17748828505343346652
12119455 92 17240755181701967294
124424 183 10881402036884853055
12932764 1 14907609039543795026
14577589 140 7853569106595728969
14897335 6 18409448081482819946
18511873 20 12179851597387142293
19422 9 12463276038373594121
20651381 17 17095246899651027671
20767249 213 18335419114889026812
20871999 31 17560785633769324061
21119208 17 16056878022458101716
21293036 1 17704071798256112848
22485316 2 9295283928781032380
23402539 116 17022899073567428759
25610 137 17632300064282632369
265663 24 17821442465297654266
328317 168 18412542137072714116
351380 180 17676483947619304652
528716 315 17203610363401206609
53428517 58 18060701697549814790
58999712 33 11963379735589789447

> <PUBCHEM_SHAPE_MULTIPOLES>
199.93
8.26
1.03
0.95
3.67
0.09
-0.09
-1.91
0.83
-0.27
0.03
-0.06
-0.04
0.18

> <PUBCHEM_SHAPE_SELFOVERLAP>
357.665

> <PUBCHEM_SHAPE_VOLUME>
129.2

> <PUBCHEM_COORDINATE_TYPE>
2
5
10

$$$$
