5364291
  -OEChem-11232109273D

 32 31  0     0  0  0  0  0  0999 V2000
   -1.7530    0.6429    0.0775 O   0  0  0  0  0  0  0  0  0  0  0  0
   -0.6339   -1.4359   -0.1462 O   0  0  0  0  0  0  0  0  0  0  0  0
   -0.8186   -0.1210   -0.6912 C   0  0  0  0  0  0  0  0  0  0  0  0
    0.5536    0.5715   -0.7267 C   0  0  0  0  0  0  0  0  0  0  0  0
    1.1399    0.7741    0.6447 C   0  0  0  0  0  0  0  0  0  0  0  0
   -1.9660    1.9507   -0.4355 C   0  0  0  0  0  0  0  0  0  0  0  0
   -1.8512   -2.1660   -0.0694 C   0  0  0  0  0  0  0  0  0  0  0  0
    2.4574    0.8087    0.8939 C   0  0  0  0  0  0  0  0  0  0  0  0
    3.5103    0.6499   -0.1624 C   0  0  0  0  0  0  0  0  0  0  0  0
   -2.9651    2.6695    0.4458 C   0  0  0  0  0  0  0  0  0  0  0  0
   -1.5693   -3.5345    0.5132 C   0  0  0  0  0  0  0  0  0  0  0  0
    3.8959   -0.8099   -0.3438 C   0  0  0  0  0  0  0  0  0  0  0  0
   -1.1972   -0.2265   -1.7162 H   0  0  0  0  0  0  0  0  0  0  0  0
    1.2120   -0.0687   -1.3249 H   0  0  0  0  0  0  0  0  0  0  0  0
    0.5052    1.5349   -1.2423 H   0  0  0  0  0  0  0  0  0  0  0  0
    0.4607    0.9275    1.4793 H   0  0  0  0  0  0  0  0  0  0  0  0
   -1.0497    2.5451   -0.4234 H   0  0  0  0  0  0  0  0  0  0  0  0
   -2.3457    1.8901   -1.4611 H   0  0  0  0  0  0  0  0  0  0  0  0
   -2.5677   -1.6445    0.5741 H   0  0  0  0  0  0  0  0  0  0  0  0
   -2.2823   -2.2707   -1.0711 H   0  0  0  0  0  0  0  0  0  0  0  0
    2.7938    0.9575    1.9165 H   0  0  0  0  0  0  0  0  0  0  0  0
    4.3935    1.2254    0.1393 H   0  0  0  0  0  0  0  0  0  0  0  0
    3.1906    1.0759   -1.1198 H   0  0  0  0  0  0  0  0  0  0  0  0
   -3.1560    3.6815    0.0776 H   0  0  0  0  0  0  0  0  0  0  0  0
   -3.9128    2.1219    0.4793 H   0  0  0  0  0  0  0  0  0  0  0  0
   -2.5972    2.7314    1.4755 H   0  0  0  0  0  0  0  0  0  0  0  0
   -2.4866   -4.1256    0.5851 H   0  0  0  0  0  0  0  0  0  0  0  0
   -0.8476   -4.0762   -0.1069 H   0  0  0  0  0  0  0  0  0  0  0  0
   -1.1273   -3.4451    1.5111 H   0  0  0  0  0  0  0  0  0  0  0  0
    4.6819   -0.8995   -1.1006 H   0  0  0  0  0  0  0  0  0  0  0  0
    4.2797   -1.2352    0.5900 H   0  0  0  0  0  0  0  0  0  0  0  0
    3.0463   -1.4189   -0.6684 H   0  0  0  0  0  0  0  0  0  0  0  0
  1  3  1  0  0  0  0
  1  6  1  0  0  0  0
  2  3  1  0  0  0  0
  2  7  1  0  0  0  0
  3  4  1  0  0  0  0
  3 13  1  0  0  0  0
  4  5  1  0  0  0  0
  4 14  1  0  0  0  0
  4 15  1  0  0  0  0
  5  8  2  0  0  0  0
  5 16  1  0  0  0  0
  6 10  1  0  0  0  0
  6 17  1  0  0  0  0
  6 18  1  0  0  0  0
  7 11  1  0  0  0  0
  7 19  1  0  0  0  0
  7 20  1  0  0  0  0
  8  9  1  0  0  0  0
  8 21  1  0  0  0  0
  9 12  1  0  0  0  0
  9 22  1  0  0  0  0
  9 23  1  0  0  0  0
 10 24  1  0  0  0  0
 10 25  1  0  0  0  0
 10 26  1  0  0  0  0
 11 27  1  0  0  0  0
 11 28  1  0  0  0  0
 11 29  1  0  0  0  0
 12 30  1  0  0  0  0
 12 31  1  0  0  0  0
 12 32  1  0  0  0  0
M  END
> <PUBCHEM_COMPOUND_CID>
5364291

> <PUBCHEM_CONFORMER_RMSD>
0.8

> <PUBCHEM_CONFORMER_DIVERSEORDER>
1
10
22
32
9
40
7
35
17
31
28
24
36
19
23
34
27
39
8
38
26
6
11
41
30
2
5
15
18
25
37
20
14
3
21
33
29
13
4
12
16

> <PUBCHEM_MMFF94_PARTIAL_CHARGES>
11
1 -0.56
16 0.15
2 -0.56
21 0.15
3 0.56
4 0.14
5 -0.29
6 0.28
7 0.28
8 -0.29
9 0.14

> <PUBCHEM_EFFECTIVE_ROTOR_COUNT>
7

> <PUBCHEM_PHARMACOPHORE_FEATURES>
3
1 1 acceptor
1 12 hydrophobe
1 2 acceptor

> <PUBCHEM_HEAVY_ATOM_COUNT>
12

> <PUBCHEM_ATOM_DEF_STEREO_COUNT>
0

> <PUBCHEM_ATOM_UDEF_STEREO_COUNT>
0

> <PUBCHEM_BOND_DEF_STEREO_COUNT>
1

> <PUBCHEM_BOND_UDEF_STEREO_COUNT>
0

> <PUBCHEM_ISOTOPIC_ATOM_COUNT>
0

> <PUBCHEM_COMPONENT_COUNT>
1

> <PUBCHEM_CACTVS_TAUTO_COUNT>
1

> <PUBCHEM_CONFORMER_ID>
0051DA4300000001

> <PUBCHEM_MMFF94_ENERGY>
13.595

> <PUBCHEM_FEATURE_SELFOVERLAP>
15.259

> <PUBCHEM_SHAPE_FINGERPRINT>
10922049 32 18268434538193709145
11322862 65 18337393746792229159
12500047 106 18411416177263202124
12716758 59 18341887485401398192
12932764 1 17274256305037316284
136203 1 18338237180001302739
15279308 132 18269273469755011968
19021347 4 18338797810635506201
20524608 308 18412262839317407327
20645476 183 18335144133422735452
20711985 344 18339067311037914195
20871998 184 18199751516870956158
20871998 22 17833550471915709730
21524375 3 18056753243926076877
21665056 4 18337105661976946118
23598294 1 18334850623921249161
305870 269 17979072683025605585
449060 23 17971467644558767890
53777708 50 18261116326744535876
81228 2 18266443485854990121
81539 233 17974565793558755509

> <PUBCHEM_SHAPE_MULTIPOLES>
235.22
5.57
3.45
0.87
5.34
2.65
-0.03
-1.42
-0.15
-4.7
-0.67
0.14
-0.1
0.28

> <PUBCHEM_SHAPE_SELFOVERLAP>
426.668

> <PUBCHEM_SHAPE_VOLUME>
150.5

> <PUBCHEM_COORDINATE_TYPE>
2
5
10

$$$$
