5365706
  -OEChem-11232109463D

 26 25  0     0  0  0  0  0  0999 V2000
   -4.0435    0.3019   -1.1432 O   0  0  0  0  0  0  0  0  0  0  0  0
    0.4254    1.1416    0.1139 C   0  0  0  0  0  0  0  0  0  0  0  0
   -2.8394   -0.9787    0.5031 C   0  0  0  0  0  0  0  0  0  0  0  0
   -0.6409    0.0984   -0.0524 C   0  0  0  0  0  0  0  0  0  0  0  0
   -1.7711    0.0650    0.6695 C   0  0  0  0  0  0  0  0  0  0  0  0
    1.7467    0.5274    0.4743 C   0  0  0  0  0  0  0  0  0  0  0  0
    4.1665    0.0082    0.0714 C   0  0  0  0  0  0  0  0  0  0  0  0
    2.8432    0.6125   -0.2940 C   0  0  0  0  0  0  0  0  0  0  0  0
   -4.1755   -0.3610    0.1076 C   0  0  0  0  0  0  0  0  0  0  0  0
    4.2886   -1.4153   -0.4503 C   0  0  0  0  0  0  0  0  0  0  0  0
    0.1536    1.8612    0.8955 H   0  0  0  0  0  0  0  0  0  0  0  0
    0.5007    1.7096   -0.8213 H   0  0  0  0  0  0  0  0  0  0  0  0
   -2.9538   -1.5193    1.4493 H   0  0  0  0  0  0  0  0  0  0  0  0
   -2.5381   -1.7102   -0.2565 H   0  0  0  0  0  0  0  0  0  0  0  0
   -0.4783   -0.6539   -0.8211 H   0  0  0  0  0  0  0  0  0  0  0  0
   -1.9385    0.8182    1.4356 H   0  0  0  0  0  0  0  0  0  0  0  0
    4.9697    0.6292   -0.3410 H   0  0  0  0  0  0  0  0  0  0  0  0
    4.2984    0.0086    1.1600 H   0  0  0  0  0  0  0  0  0  0  0  0
    1.8049    0.0038    1.4260 H   0  0  0  0  0  0  0  0  0  0  0  0
    2.7905    1.1307   -1.2481 H   0  0  0  0  0  0  0  0  0  0  0  0
   -4.9470   -1.1318    0.0136 H   0  0  0  0  0  0  0  0  0  0  0  0
   -4.5120    0.3708    0.8492 H   0  0  0  0  0  0  0  0  0  0  0  0
    3.5202   -2.0653   -0.0182 H   0  0  0  0  0  0  0  0  0  0  0  0
    4.1891   -1.4472   -1.5406 H   0  0  0  0  0  0  0  0  0  0  0  0
    5.2672   -1.8303   -0.1883 H   0  0  0  0  0  0  0  0  0  0  0  0
   -3.7665   -0.3610   -1.7986 H   0  0  0  0  0  0  0  0  0  0  0  0
  1  9  1  0  0  0  0
  1 26  1  0  0  0  0
  2  4  1  0  0  0  0
  2  6  1  0  0  0  0
  2 11  1  0  0  0  0
  2 12  1  0  0  0  0
  3  5  1  0  0  0  0
  3  9  1  0  0  0  0
  3 13  1  0  0  0  0
  3 14  1  0  0  0  0
  4  5  2  0  0  0  0
  4 15  1  0  0  0  0
  5 16  1  0  0  0  0
  6  8  2  0  0  0  0
  6 19  1  0  0  0  0
  7  8  1  0  0  0  0
  7 10  1  0  0  0  0
  7 17  1  0  0  0  0
  7 18  1  0  0  0  0
  8 20  1  0  0  0  0
  9 21  1  0  0  0  0
  9 22  1  0  0  0  0
 10 23  1  0  0  0  0
 10 24  1  0  0  0  0
 10 25  1  0  0  0  0
M  END
> <PUBCHEM_COMPOUND_CID>
5365706

> <PUBCHEM_CONFORMER_RMSD>
0.6

> <PUBCHEM_CONFORMER_DIVERSEORDER>
1
91
64
76
85
15
6
46
4
59
61
24
77
16
95
40
55
74
87
83
50
2
66
9
43
22
10
51
35
90
93
86
62
34
7
36
3
19
97
18
47
63
65
81
68
89
37
48
72
84
99
67
11
12
88
45
69
98
75
56
20
27
57
23
53
26
33
54
96
52
58
71
13
38
30
17
73
21
94
49
14
41
78
92
5
70
42
31
25
79
44
29
82
8
28
80
60
39
32

> <PUBCHEM_MMFF94_PARTIAL_CHARGES>
14
1 -0.68
15 0.15
16 0.15
19 0.15
2 0.28
20 0.15
26 0.4
3 0.14
4 -0.29
5 -0.29
6 -0.29
7 0.14
8 -0.29
9 0.28

> <PUBCHEM_EFFECTIVE_ROTOR_COUNT>
5

> <PUBCHEM_PHARMACOPHORE_FEATURES>
3
1 1 acceptor
1 1 donor
1 10 hydrophobe

> <PUBCHEM_HEAVY_ATOM_COUNT>
10

> <PUBCHEM_ATOM_DEF_STEREO_COUNT>
0

> <PUBCHEM_ATOM_UDEF_STEREO_COUNT>
0

> <PUBCHEM_BOND_DEF_STEREO_COUNT>
2

> <PUBCHEM_BOND_UDEF_STEREO_COUNT>
0

> <PUBCHEM_ISOTOPIC_ATOM_COUNT>
0

> <PUBCHEM_COMPONENT_COUNT>
1

> <PUBCHEM_CACTVS_TAUTO_COUNT>
1

> <PUBCHEM_CONFORMER_ID>
0051DFCA00000001

> <PUBCHEM_MMFF94_ENERGY>
0.7412

> <PUBCHEM_FEATURE_SELFOVERLAP>
15.223

> <PUBCHEM_SHAPE_FINGERPRINT>
10751810 167 16805041821985178177
11062470 55 13767923537526952856
11987891 27 17418373592824470878
13237642 15 11312051071586770783
13690532 89 18201720669361148151
14251717 144 18202285775457152862
14252887 29 17274832324802962318
170605 34 9007067850570362648
177051 138 18202289074323864522
17834072 8 18040992921562472967
18186145 218 15357975715320009732
190213 19 18408042931059685472
1986462 14 17749108915690459243
20211469 26 18131353003040907993
20281407 28 18412268350150688952
20645477 70 18411421717644549846
20671657 53 18412832407900243641
21119208 17 16950284009569136230
22485316 2 18341330071766160458
22959321 60 11167941342398737866
23402539 116 15697998518490446585
23402655 69 13912612662715673266
32948 21 17603579682346100884

> <PUBCHEM_SHAPE_MULTIPOLES>
199.93
9.63
1.14
0.83
0.11
0.21
0.08
3.04
1.5
0.77
0.02
-0.46
-0.01
0.45

> <PUBCHEM_SHAPE_SELFOVERLAP>
361.866

> <PUBCHEM_SHAPE_VOLUME>
127.9

> <PUBCHEM_COORDINATE_TYPE>
2
5
10

$$$$
