5365818
  -OEChem-11232108543D

 32 31  0     1  0  0  0  0  0999 V2000
    2.6627    2.1473    0.0991 O   0  0  0  0  0  0  0  0  0  0  0  0
   -0.3495   -1.5376   -0.7754 C   0  0  0  0  0  0  0  0  0  0  0  0
   -1.5913   -1.6379    0.1206 C   0  0  0  0  0  0  0  0  0  0  0  0
    0.8704   -0.9867   -0.0669 C   0  0  0  0  0  0  0  0  0  0  0  0
    1.5207    0.1403   -0.4186 C   0  0  0  0  0  0  0  0  0  0  0  0
    2.7514    0.7277    0.2120 C   0  0  1  0  0  0  0  0  0  0  0  0
   -2.0063   -0.3069    0.6841 C   0  0  0  0  0  0  0  0  0  0  0  0
    1.3713   -1.8172    1.0869 C   0  0  0  0  0  0  0  0  0  0  0  0
   -2.7735    0.6375    0.1075 C   0  0  0  0  0  0  0  0  0  0  0  0
    4.0115    0.2507   -0.4985 C   0  0  0  0  0  0  0  0  0  0  0  0
   -3.1507    1.9511    0.7307 C   0  0  0  0  0  0  0  0  0  0  0  0
   -3.3166    0.4317   -1.2816 C   0  0  0  0  0  0  0  0  0  0  0  0
   -0.1092   -2.5360   -1.1622 H   0  0  0  0  0  0  0  0  0  0  0  0
   -0.5795   -0.9228   -1.6548 H   0  0  0  0  0  0  0  0  0  0  0  0
   -1.4052   -2.3249    0.9556 H   0  0  0  0  0  0  0  0  0  0  0  0
   -2.4139   -2.0952   -0.4408 H   0  0  0  0  0  0  0  0  0  0  0  0
    1.1362    0.6851   -1.2807 H   0  0  0  0  0  0  0  0  0  0  0  0
    2.8042    0.5014    1.2811 H   0  0  0  0  0  0  0  0  0  0  0  0
   -1.6260   -0.0999    1.6838 H   0  0  0  0  0  0  0  0  0  0  0  0
    0.7603   -1.6404    1.9777 H   0  0  0  0  0  0  0  0  0  0  0  0
    2.4158   -1.6293    1.3474 H   0  0  0  0  0  0  0  0  0  0  0  0
    1.3113   -2.8826    0.8372 H   0  0  0  0  0  0  0  0  0  0  0  0
    4.1215   -0.8369   -0.4425 H   0  0  0  0  0  0  0  0  0  0  0  0
    4.0077    0.5479   -1.5537 H   0  0  0  0  0  0  0  0  0  0  0  0
    4.8987    0.7106   -0.0493 H   0  0  0  0  0  0  0  0  0  0  0  0
   -2.7772    2.7831    0.1252 H   0  0  0  0  0  0  0  0  0  0  0  0
   -2.7306    2.0544    1.7366 H   0  0  0  0  0  0  0  0  0  0  0  0
   -4.2390    2.0367    0.8121 H   0  0  0  0  0  0  0  0  0  0  0  0
   -2.9935    1.2526   -1.9314 H   0  0  0  0  0  0  0  0  0  0  0  0
   -3.0013   -0.4954   -1.7640 H   0  0  0  0  0  0  0  0  0  0  0  0
   -4.4117    0.4296   -1.2556 H   0  0  0  0  0  0  0  0  0  0  0  0
    3.4618    2.5244    0.5052 H   0  0  0  0  0  0  0  0  0  0  0  0
  1  6  1  0  0  0  0
  1 32  1  0  0  0  0
  2  3  1  0  0  0  0
  2  4  1  0  0  0  0
  2 13  1  0  0  0  0
  2 14  1  0  0  0  0
  3  7  1  0  0  0  0
  3 15  1  0  0  0  0
  3 16  1  0  0  0  0
  4  5  2  0  0  0  0
  4  8  1  0  0  0  0
  5  6  1  0  0  0  0
  5 17  1  0  0  0  0
  6 10  1  0  0  0  0
  6 18  1  0  0  0  0
  7  9  2  0  0  0  0
  7 19  1  0  0  0  0
  8 20  1  0  0  0  0
  8 21  1  0  0  0  0
  8 22  1  0  0  0  0
  9 11  1  0  0  0  0
  9 12  1  0  0  0  0
 10 23  1  0  0  0  0
 10 24  1  0  0  0  0
 10 25  1  0  0  0  0
 11 26  1  0  0  0  0
 11 27  1  0  0  0  0
 11 28  1  0  0  0  0
 12 29  1  0  0  0  0
 12 30  1  0  0  0  0
 12 31  1  0  0  0  0
M  END
> <PUBCHEM_COMPOUND_CID>
5365818

> <PUBCHEM_CONFORMER_RMSD>
0.6

> <PUBCHEM_CONFORMER_DIVERSEORDER>
16
67
126
6
121
45
36
104
78
142
32
39
8
129
50
66
20
115
141
26
24
61
31
22
119
29
143
82
124
89
101
125
10
35
2
7
60
83
47
46
69
51
107
128
9
108
25
49
56
96
72
1
140
28
102
21
145
122
44
116
57
53
15
133
74
11
103
79
48
71
92
80
114
14
41
81
146
111
19
117
63
100
62
55
98
77
54
123
109
130
68
106
40
23
137
73
12
118
27
138
105
127
110
43
75
33
3
17
52
86
112
134
85
147
58
132
99
97
91
18
37
139
88
131
4
64
144
136
13
30
76
38
113
120
42
93
5
84
65
87
70
135
34
59
90
94
95

> <PUBCHEM_MMFF94_PARTIAL_CHARGES>
14
1 -0.68
11 0.14
12 0.14
17 0.15
19 0.15
2 0.14
3 0.14
32 0.4
4 -0.28
5 -0.29
6 0.42
7 -0.29
8 0.14
9 -0.28

> <PUBCHEM_EFFECTIVE_ROTOR_COUNT>
4

> <PUBCHEM_PHARMACOPHORE_FEATURES>
5
1 1 acceptor
1 1 donor
1 8 hydrophobe
3 9 11 12 hydrophobe
4 2 3 4 7 hydrophobe

> <PUBCHEM_HEAVY_ATOM_COUNT>
12

> <PUBCHEM_ATOM_DEF_STEREO_COUNT>
0

> <PUBCHEM_ATOM_UDEF_STEREO_COUNT>
1

> <PUBCHEM_BOND_DEF_STEREO_COUNT>
1

> <PUBCHEM_BOND_UDEF_STEREO_COUNT>
0

> <PUBCHEM_ISOTOPIC_ATOM_COUNT>
0

> <PUBCHEM_COMPONENT_COUNT>
1

> <PUBCHEM_CACTVS_TAUTO_COUNT>
1

> <PUBCHEM_CONFORMER_ID>
0051E03A00000010

> <PUBCHEM_MMFF94_ENERGY>
11.8456

> <PUBCHEM_FEATURE_SELFOVERLAP>
25.391

> <PUBCHEM_SHAPE_FINGERPRINT>
10149128 111 18343023255211606777
10149128 76 18340489963299201483
12162725 195 18269265781985039811
12932764 1 17677339286288208291
13618510 140 18409165497918990385
14128692 85 9727633908003053562
14350558 41 9295285049530106786
14897335 6 18408595963791487711
15775835 57 18409170982687153465
17834072 8 18411706457186685526
18186145 218 18058745705213892298
201361 129 18259705575615813394
20281407 28 8214144049098542111
20304884 271 18342181063622296769
20653085 51 18269285706275113450
20671657 1 18338509738436411986
21524375 3 18409448089619041495
22485316 2 8286201634651946029
22959321 54 18411975892963805165
23500284 5 8502385446268106989
305870 269 18186799184255163978
6430166 295 18411139117486387468
8050 44 18408597084994177885
83771 10 9079113366922565631

> <PUBCHEM_SHAPE_MULTIPOLES>
241.09
6.5
2.11
1.03
1.1
0.19
-0.07
3.74
-0.62
0.03
0.41
-0.45
-0.12
-0.45

> <PUBCHEM_SHAPE_SELFOVERLAP>
448.261

> <PUBCHEM_SHAPE_VOLUME>
152.6

> <PUBCHEM_COORDINATE_TYPE>
2
5
10

$$$$
