5365877
  -OEChem-11232108473D

 33 32  0     0  0  0  0  0  0999 V2000
   -4.6416    1.6497   -0.2032 O   0  0  0  0  0  0  0  0  0  0  0  0
    0.9952   -1.9868    0.4325 C   0  0  0  0  0  0  0  0  0  0  0  0
    2.4047   -1.5101    0.0565 C   0  0  0  0  0  0  0  0  0  0  0  0
   -0.1102   -1.0901   -0.0912 C   0  0  0  0  0  0  0  0  0  0  0  0
   -1.0005   -0.5476    0.7622 C   0  0  0  0  0  0  0  0  0  0  0  0
   -2.1628    0.3445    0.4244 C   0  0  0  0  0  0  0  0  0  0  0  0
    2.7432   -0.1780    0.6691 C   0  0  0  0  0  0  0  0  0  0  0  0
   -0.1215   -0.8798   -1.5802 C   0  0  0  0  0  0  0  0  0  0  0  0
   -3.4563   -0.4352    0.2024 C   0  0  0  0  0  0  0  0  0  0  0  0
    3.1669    0.9388    0.0477 C   0  0  0  0  0  0  0  0  0  0  0  0
    3.4698    2.1824    0.8407 C   0  0  0  0  0  0  0  0  0  0  0  0
    3.3676    1.0860   -1.4336 C   0  0  0  0  0  0  0  0  0  0  0  0
   -4.6545    0.4261   -0.1274 C   0  0  0  0  0  0  0  0  0  0  0  0
    0.9301   -2.0942    1.5233 H   0  0  0  0  0  0  0  0  0  0  0  0
    0.8444   -2.9938    0.0224 H   0  0  0  0  0  0  0  0  0  0  0  0
    2.5270   -1.5235   -1.0290 H   0  0  0  0  0  0  0  0  0  0  0  0
    3.1248   -2.2420    0.4441 H   0  0  0  0  0  0  0  0  0  0  0  0
   -0.9070   -0.7785    1.8224 H   0  0  0  0  0  0  0  0  0  0  0  0
   -1.9387    0.9595   -0.4550 H   0  0  0  0  0  0  0  0  0  0  0  0
   -2.2982    1.0596    1.2458 H   0  0  0  0  0  0  0  0  0  0  0  0
    2.6459   -0.1498    1.7541 H   0  0  0  0  0  0  0  0  0  0  0  0
   -1.0721   -0.4771   -1.9410 H   0  0  0  0  0  0  0  0  0  0  0  0
    0.6688   -0.1881   -1.8828 H   0  0  0  0  0  0  0  0  0  0  0  0
    0.0301   -1.8323   -2.0994 H   0  0  0  0  0  0  0  0  0  0  0  0
   -3.7106   -1.0111    1.0998 H   0  0  0  0  0  0  0  0  0  0  0  0
   -3.3351   -1.1446   -0.6243 H   0  0  0  0  0  0  0  0  0  0  0  0
    3.3032    2.0449    1.9142 H   0  0  0  0  0  0  0  0  0  0  0  0
    2.8309    3.0077    0.5094 H   0  0  0  0  0  0  0  0  0  0  0  0
    4.5158    2.4748    0.7022 H   0  0  0  0  0  0  0  0  0  0  0  0
    4.3930    1.4104   -1.6416 H   0  0  0  0  0  0  0  0  0  0  0  0
    3.2048    0.1661   -1.9971 H   0  0  0  0  0  0  0  0  0  0  0  0
    2.6821    1.8419   -1.8311 H   0  0  0  0  0  0  0  0  0  0  0  0
   -5.5907   -0.1321   -0.3020 H   0  0  0  0  0  0  0  0  0  0  0  0
  1 13  2  0  0  0  0
  2  3  1  0  0  0  0
  2  4  1  0  0  0  0
  2 14  1  0  0  0  0
  2 15  1  0  0  0  0
  3  7  1  0  0  0  0
  3 16  1  0  0  0  0
  3 17  1  0  0  0  0
  4  5  2  0  0  0  0
  4  8  1  0  0  0  0
  5  6  1  0  0  0  0
  5 18  1  0  0  0  0
  6  9  1  0  0  0  0
  6 19  1  0  0  0  0
  6 20  1  0  0  0  0
  7 10  2  0  0  0  0
  7 21  1  0  0  0  0
  8 22  1  0  0  0  0
  8 23  1  0  0  0  0
  8 24  1  0  0  0  0
  9 13  1  0  0  0  0
  9 25  1  0  0  0  0
  9 26  1  0  0  0  0
 10 11  1  0  0  0  0
 10 12  1  0  0  0  0
 11 27  1  0  0  0  0
 11 28  1  0  0  0  0
 11 29  1  0  0  0  0
 12 30  1  0  0  0  0
 12 31  1  0  0  0  0
 12 32  1  0  0  0  0
 13 33  1  0  0  0  0
M  END
> <PUBCHEM_COMPOUND_CID>
5365877

> <PUBCHEM_CONFORMER_RMSD>
0.8

> <PUBCHEM_CONFORMER_DIVERSEORDER>
6
3
191
268
411
139
288
68
520
445
176
231
345
36
44
414
232
318
19
49
102
386
97
61
37
450
239
9
157
83
184
406
33
34
291
127
112
60
335
225
188
400
332
53
105
14
2
428
45
214
355
459
7
58
106
356
59
5
505
234
492
263
307
434
367
295
189
35
405
430
100
1
31
55
8
77
22
251
206
378
104
342
75
141
40
109
50
93
4
128
28
13
66
21
452
32
391
493
281
236
11
76
56
215
10
16
20

> <PUBCHEM_MMFF94_PARTIAL_CHARGES>
16
1 -0.57
10 -0.28
11 0.14
12 0.14
13 0.45
18 0.15
2 0.14
21 0.15
3 0.14
33 0.06
4 -0.28
5 -0.29
6 0.14
7 -0.29
8 0.14
9 0.06

> <PUBCHEM_EFFECTIVE_ROTOR_COUNT>
6

> <PUBCHEM_PHARMACOPHORE_FEATURES>
4
1 1 acceptor
1 8 hydrophobe
3 10 11 12 hydrophobe
4 2 3 4 7 hydrophobe

> <PUBCHEM_HEAVY_ATOM_COUNT>
13

> <PUBCHEM_ATOM_DEF_STEREO_COUNT>
0

> <PUBCHEM_ATOM_UDEF_STEREO_COUNT>
0

> <PUBCHEM_BOND_DEF_STEREO_COUNT>
1

> <PUBCHEM_BOND_UDEF_STEREO_COUNT>
0

> <PUBCHEM_ISOTOPIC_ATOM_COUNT>
0

> <PUBCHEM_COMPONENT_COUNT>
1

> <PUBCHEM_CACTVS_TAUTO_COUNT>
2

> <PUBCHEM_CONFORMER_ID>
0051E07500000006

> <PUBCHEM_MMFF94_ENERGY>
8.7676

> <PUBCHEM_FEATURE_SELFOVERLAP>
20.319

> <PUBCHEM_SHAPE_FINGERPRINT>
122479 349 18261674877928779186
12633257 1 16443336633021380128
13675066 3 12252176394452348391
14123255 52 18340764970034351352
14251732 16 18411703210549878443
14251764 38 17750222613548476293
14252887 29 8430317931124769932
14415576 193 18339643335003536271
15775835 57 18272087249044041576
17134986 127 18201441423767876374
17834072 33 18343011195571024839
18186145 218 17845946202803455801
20231682 184 18272653437028446262
20871998 22 8646503903125454234
21354914 76 9151169857280551081
21524375 3 18411421726266217418
22096605 113 18412262826601297811
22959321 54 18342176673997064864
22959321 60 18186805819921269907
23559900 14 18267862787699817955
23590187 173 18408884022926565921
23596394 208 13038623973641816681
3060560 45 17489590043572085462
43658 37 18201150069981438672
449060 62 18335425651048269709
474 4 18040721376418352973
4990 188 13182732633198304591
548570 60 18187362130003106685
81539 233 18411139125564918071
94968 8 10447930585645894256

> <PUBCHEM_SHAPE_MULTIPOLES>
261.66
8.66
2
1.14
8.06
0.19
0.42
5.77
0.16
-1.3
-0.21
-0.7
0.05
0.13

> <PUBCHEM_SHAPE_SELFOVERLAP>
486.927

> <PUBCHEM_SHAPE_VOLUME>
164.1

> <PUBCHEM_COORDINATE_TYPE>
2
5
10

$$$$
