53654
  -OEChem-11232109143D

 16 16  0     1  0  0  0  0  0999 V2000
    0.8318   -1.2023   -0.0105 O   0  0  0  0  0  0  0  0  0  0  0  0
   -0.0948    1.0094   -0.2826 N   0  0  0  0  0  0  0  0  0  0  0  0
    1.0881    0.1449   -0.4137 C   0  0  1  0  0  0  0  0  0  0  0  0
   -0.5880   -1.3006    0.0640 C   0  0  0  0  0  0  0  0  0  0  0  0
   -1.0116    0.1334   -0.0066 C   0  0  0  0  0  0  0  0  0  0  0  0
    2.2143    0.7033    0.4400 C   0  0  0  0  0  0  0  0  0  0  0  0
   -2.4398    0.5119    0.2095 C   0  0  0  0  0  0  0  0  0  0  0  0
    1.4031    0.1270   -1.4640 H   0  0  0  0  0  0  0  0  0  0  0  0
   -0.8838   -1.7622    1.0081 H   0  0  0  0  0  0  0  0  0  0  0  0
   -0.9737   -1.8624   -0.7900 H   0  0  0  0  0  0  0  0  0  0  0  0
    3.1111    0.0815    0.3498 H   0  0  0  0  0  0  0  0  0  0  0  0
    2.4631    1.7284    0.1481 H   0  0  0  0  0  0  0  0  0  0  0  0
    1.9346    0.7077    1.4996 H   0  0  0  0  0  0  0  0  0  0  0  0
   -2.7582    0.1748    1.1993 H   0  0  0  0  0  0  0  0  0  0  0  0
   -3.0602    0.0299   -0.5506 H   0  0  0  0  0  0  0  0  0  0  0  0
   -2.5640    1.5957    0.1415 H   0  0  0  0  0  0  0  0  0  0  0  0
  1  3  1  0  0  0  0
  1  4  1  0  0  0  0
  2  3  1  0  0  0  0
  2  5  2  0  0  0  0
  3  6  1  0  0  0  0
  3  8  1  0  0  0  0
  4  5  1  0  0  0  0
  4  9  1  0  0  0  0
  4 10  1  0  0  0  0
  5  7  1  0  0  0  0
  6 11  1  0  0  0  0
  6 12  1  0  0  0  0
  6 13  1  0  0  0  0
  7 14  1  0  0  0  0
  7 15  1  0  0  0  0
  7 16  1  0  0  0  0
M  END
> <PUBCHEM_COMPOUND_CID>
53654

> <PUBCHEM_CONFORMER_RMSD>
0.4

> <PUBCHEM_CONFORMER_DIVERSEORDER>
1
2

> <PUBCHEM_MMFF94_PARTIAL_CHARGES>
6
1 -0.56
2 -0.7
3 0.53
4 0.34
5 0.33
7 0.06

> <PUBCHEM_EFFECTIVE_ROTOR_COUNT>
0.6

> <PUBCHEM_PHARMACOPHORE_FEATURES>
3
1 1 acceptor
1 2 acceptor
5 1 2 3 4 5 rings

> <PUBCHEM_HEAVY_ATOM_COUNT>
7

> <PUBCHEM_ATOM_DEF_STEREO_COUNT>
0

> <PUBCHEM_ATOM_UDEF_STEREO_COUNT>
1

> <PUBCHEM_BOND_DEF_STEREO_COUNT>
0

> <PUBCHEM_BOND_UDEF_STEREO_COUNT>
0

> <PUBCHEM_ISOTOPIC_ATOM_COUNT>
0

> <PUBCHEM_COMPONENT_COUNT>
1

> <PUBCHEM_CACTVS_TAUTO_COUNT>
1

> <PUBCHEM_CONFORMER_ID>
0000D19600000001

> <PUBCHEM_MMFF94_ENERGY>
10.3113

> <PUBCHEM_FEATURE_SELFOVERLAP>
15.253

> <PUBCHEM_SHAPE_FINGERPRINT>
14390081 3 18060416915300918161
16714656 1 18335145318801963244
20096714 4 18413110554192312579
21040471 1 18409737274008956637
29004967 10 17968105191808305241

> <PUBCHEM_SHAPE_MULTIPOLES>
133.21
2.74
1.25
0.66
0.23
0.35
0.01
-0.88
0.42
0.02
0.02
-0.07
-0.04
0.06

> <PUBCHEM_SHAPE_SELFOVERLAP>
259.193

> <PUBCHEM_SHAPE_VOLUME>
82.5

> <PUBCHEM_COORDINATE_TYPE>
2
5
10

$$$$
