5365850
  -OEChem-11232109093D

 43 42  0     0  0  0  0  0  0999 V2000
    0.8725    1.0053    0.4072 O   0  0  0  0  0  0  0  0  0  0  0  0
    2.7797    2.1415   -0.2210 O   0  0  0  0  0  0  0  0  0  0  0  0
   -3.7368    1.3189    0.3136 C   0  0  0  0  0  0  0  0  0  0  0  0
    4.3408   -0.2062   -0.1214 C   0  0  0  0  0  0  0  0  0  0  0  0
   -4.2351   -0.0972   -0.0037 C   0  0  0  0  0  0  0  0  0  0  0  0
   -2.3115    1.5774   -0.1279 C   0  0  0  0  0  0  0  0  0  0  0  0
    2.8542   -0.2476    0.2285 C   0  0  0  0  0  0  0  0  0  0  0  0
    4.9909   -1.5785    0.0496 C   0  0  0  0  0  0  0  0  0  0  0  0
   -1.2983    1.9086    0.6962 C   0  0  0  0  0  0  0  0  0  0  0  0
   -3.4002   -1.1636    0.6496 C   0  0  0  0  0  0  0  0  0  0  0  0
    0.1212    2.2096    0.3343 C   0  0  0  0  0  0  0  0  0  0  0  0
   -2.0724    1.4750   -1.6127 C   0  0  0  0  0  0  0  0  0  0  0  0
    2.2044    1.1114    0.1018 C   0  0  0  0  0  0  0  0  0  0  0  0
    6.4784   -1.5327   -0.2607 C   0  0  0  0  0  0  0  0  0  0  0  0
   -2.7887   -2.2130    0.0684 C   0  0  0  0  0  0  0  0  0  0  0  0
   -2.8025   -2.5223   -1.4014 C   0  0  0  0  0  0  0  0  0  0  0  0
   -1.9966   -3.1869    0.8996 C   0  0  0  0  0  0  0  0  0  0  0  0
   -3.8316    1.4995    1.3925 H   0  0  0  0  0  0  0  0  0  0  0  0
   -4.3961    2.0482   -0.1736 H   0  0  0  0  0  0  0  0  0  0  0  0
    4.4685    0.1392   -1.1549 H   0  0  0  0  0  0  0  0  0  0  0  0
    4.8497    0.5246    0.5197 H   0  0  0  0  0  0  0  0  0  0  0  0
   -5.2575   -0.1927    0.3836 H   0  0  0  0  0  0  0  0  0  0  0  0
   -4.3177   -0.2258   -1.0854 H   0  0  0  0  0  0  0  0  0  0  0  0
    2.3356   -0.9396   -0.4444 H   0  0  0  0  0  0  0  0  0  0  0  0
    2.7256   -0.5896    1.2615 H   0  0  0  0  0  0  0  0  0  0  0  0
    4.8506   -1.9321    1.0778 H   0  0  0  0  0  0  0  0  0  0  0  0
    4.5059   -2.3051   -0.6125 H   0  0  0  0  0  0  0  0  0  0  0  0
   -1.5159    1.9630    1.7620 H   0  0  0  0  0  0  0  0  0  0  0  0
   -3.3143   -1.0608    1.7311 H   0  0  0  0  0  0  0  0  0  0  0  0
    0.2199    2.6701   -0.6531 H   0  0  0  0  0  0  0  0  0  0  0  0
    0.5173    2.9266    1.0642 H   0  0  0  0  0  0  0  0  0  0  0  0
   -1.0536    1.7000   -1.9318 H   0  0  0  0  0  0  0  0  0  0  0  0
   -2.2836    0.4625   -1.9682 H   0  0  0  0  0  0  0  0  0  0  0  0
   -2.7353    2.1673   -2.1432 H   0  0  0  0  0  0  0  0  0  0  0  0
    6.6541   -1.2112   -1.2922 H   0  0  0  0  0  0  0  0  0  0  0  0
    6.9979   -0.8395    0.4088 H   0  0  0  0  0  0  0  0  0  0  0  0
    6.9229   -2.5248   -0.1336 H   0  0  0  0  0  0  0  0  0  0  0  0
   -3.1811   -3.5368   -1.5666 H   0  0  0  0  0  0  0  0  0  0  0  0
   -3.4277   -1.8498   -1.9906 H   0  0  0  0  0  0  0  0  0  0  0  0
   -1.7861   -2.4660   -1.8052 H   0  0  0  0  0  0  0  0  0  0  0  0
   -0.9540   -3.2089    0.5657 H   0  0  0  0  0  0  0  0  0  0  0  0
   -1.9981   -2.9272    1.9635 H   0  0  0  0  0  0  0  0  0  0  0  0
   -2.4142   -4.1946    0.8036 H   0  0  0  0  0  0  0  0  0  0  0  0
  1 11  1  0  0  0  0
  1 13  1  0  0  0  0
  2 13  2  0  0  0  0
  3  5  1  0  0  0  0
  3  6  1  0  0  0  0
  3 18  1  0  0  0  0
  3 19  1  0  0  0  0
  4  7  1  0  0  0  0
  4  8  1  0  0  0  0
  4 20  1  0  0  0  0
  4 21  1  0  0  0  0
  5 10  1  0  0  0  0
  5 22  1  0  0  0  0
  5 23  1  0  0  0  0
  6  9  2  0  0  0  0
  6 12  1  0  0  0  0
  7 13  1  0  0  0  0
  7 24  1  0  0  0  0
  7 25  1  0  0  0  0
  8 14  1  0  0  0  0
  8 26  1  0  0  0  0
  8 27  1  0  0  0  0
  9 11  1  0  0  0  0
  9 28  1  0  0  0  0
 10 15  2  0  0  0  0
 10 29  1  0  0  0  0
 11 30  1  0  0  0  0
 11 31  1  0  0  0  0
 12 32  1  0  0  0  0
 12 33  1  0  0  0  0
 12 34  1  0  0  0  0
 14 35  1  0  0  0  0
 14 36  1  0  0  0  0
 14 37  1  0  0  0  0
 15 16  1  0  0  0  0
 15 17  1  0  0  0  0
 16 38  1  0  0  0  0
 16 39  1  0  0  0  0
 16 40  1  0  0  0  0
 17 41  1  0  0  0  0
 17 42  1  0  0  0  0
 17 43  1  0  0  0  0
M  END
> <PUBCHEM_COMPOUND_CID>
5365850

> <PUBCHEM_CONFORMER_RMSD>
1

> <PUBCHEM_CONFORMER_DIVERSEORDER>
1
84
26
36
161
54
173
140
91
102
5
148
123
15
158
56
150
177
100
28
7
110
169
160
114
93
38
96
132
104
14
63
20
113
61
85
157
76
99
67
95
78
4
133
144
65
127
146
154
27
111
98
168
37
30
143
156
77
163
33
21
34
120
171
176
137
74
108
129
92
2
90
116
101
80
138
153
81
18
11
149
122
35
79
125
105
49
3
135
162
6
106
60
82
136
172
9
29
46
166
41
109
52
155
58
44
142
175
178
69
89
151
103
126
17
64
164
24
10
97
70
112
128
165
131
147
13
87
8
32
55
43
121
141
124
45
94
22
73
139
180
119
57
48
86
179
130
62
25
134
23
66
174
72
40
159
68
107
39
42
47
118
50
12
31
75
167
71
117
152
53
19
88
16
170
115
145
59
83
51

> <PUBCHEM_MMFF94_PARTIAL_CHARGES>
16
1 -0.43
10 -0.29
11 0.42
12 0.14
13 0.66
15 -0.28
16 0.14
17 0.14
2 -0.57
28 0.15
29 0.15
3 0.14
5 0.14
6 -0.28
7 0.06
9 -0.29

> <PUBCHEM_EFFECTIVE_ROTOR_COUNT>
9

> <PUBCHEM_PHARMACOPHORE_FEATURES>
5
1 12 hydrophobe
1 14 hydrophobe
1 2 acceptor
3 15 16 17 hydrophobe
4 3 5 6 10 hydrophobe

> <PUBCHEM_HEAVY_ATOM_COUNT>
17

> <PUBCHEM_ATOM_DEF_STEREO_COUNT>
0

> <PUBCHEM_ATOM_UDEF_STEREO_COUNT>
0

> <PUBCHEM_BOND_DEF_STEREO_COUNT>
1

> <PUBCHEM_BOND_UDEF_STEREO_COUNT>
0

> <PUBCHEM_ISOTOPIC_ATOM_COUNT>
0

> <PUBCHEM_COMPONENT_COUNT>
1

> <PUBCHEM_CACTVS_TAUTO_COUNT>
1

> <PUBCHEM_CONFORMER_ID>
0051E05A00000001

> <PUBCHEM_MMFF94_ENERGY>
11.3937

> <PUBCHEM_FEATURE_SELFOVERLAP>
25.393

> <PUBCHEM_SHAPE_FINGERPRINT>
107951 10 17168425948874236345
10803635 8 17969215642802180260
11458722 379 18334858294495644643
12555020 224 18410845556640472325
12596602 18 13614232659851148438
12633257 1 18200607959409634955
12757275 245 18410576154289413792
13257819 37 17387391482054229117
13551218 46 18339650039875026363
14251731 5 18266742557212635187
14251740 79 18409450258540577090
14251751 93 18187358783949036162
14251757 5 18333735714973386498
14916288 52 18122064466480869259
15322534 239 18187932720788517322
15880784 105 16486674940296731982
17859628 97 18336266743685374971
20403669 9 18343026592153458014
20621476 30 18339085865993348390
20621476 51 17916296315487538279
21403212 168 18128830651412922465
21634736 98 18261393386009530664
221490 88 18337114583056465304
23466295 7 18042701657185180003
23559900 14 18411975897185497968
25122255 55 18059305245311973390
3246875 12 18197211659135814448
559249 180 18337389323002073401
574716 61 17023766630785274838
57583515 115 18343021064583223943
57583515 52 18409167696995025970
6138700 20 18411135823647625495
7062679 117 18411142399147246286
8809292 202 18410293631372207937
9709674 26 18264771137047977136

> <PUBCHEM_SHAPE_MULTIPOLES>
338.11
11.51
3.52
1.02
19.68
1.63
0.33
6.39
0.71
-2.27
-0.11
-0.85
0.18
0.16

> <PUBCHEM_SHAPE_SELFOVERLAP>
634.458

> <PUBCHEM_SHAPE_VOLUME>
210.8

> <PUBCHEM_COORDINATE_TYPE>
2
5
10

$$$$
