5365027
  -OEChem-11232109243D

 28 27  0     0  0  0  0  0  0999 V2000
    3.7199    1.9667    0.1135 O   0  0  0  0  0  0  0  0  0  0  0  0
   -1.4531   -0.5311   -0.4206 C   0  0  0  0  0  0  0  0  0  0  0  0
   -2.6035    0.1316    0.3429 C   0  0  0  0  0  0  0  0  0  0  0  0
   -0.1510   -0.6017    0.3811 C   0  0  0  0  0  0  0  0  0  0  0  0
   -3.9107    0.1795   -0.4488 C   0  0  0  0  0  0  0  0  0  0  0  0
    0.9578   -1.2833   -0.4251 C   0  0  0  0  0  0  0  0  0  0  0  0
   -4.9994    0.9101    0.3226 C   0  0  0  0  0  0  0  0  0  0  0  0
    2.2462   -1.3206    0.3444 C   0  0  0  0  0  0  0  0  0  0  0  0
    3.1681   -0.3474    0.3039 C   0  0  0  0  0  0  0  0  0  0  0  0
    3.0258    0.8962   -0.5138 C   0  0  0  0  0  0  0  0  0  0  0  0
   -1.2759    0.0231   -1.3508 H   0  0  0  0  0  0  0  0  0  0  0  0
   -1.7545   -1.5459   -0.7091 H   0  0  0  0  0  0  0  0  0  0  0  0
   -2.7707   -0.4095    1.2825 H   0  0  0  0  0  0  0  0  0  0  0  0
   -2.3063    1.1522    0.6147 H   0  0  0  0  0  0  0  0  0  0  0  0
   -0.3257   -1.1564    1.3117 H   0  0  0  0  0  0  0  0  0  0  0  0
    0.1500    0.4129    0.6682 H   0  0  0  0  0  0  0  0  0  0  0  0
   -4.2453   -0.8395   -0.6747 H   0  0  0  0  0  0  0  0  0  0  0  0
   -3.7464    0.6875   -1.4061 H   0  0  0  0  0  0  0  0  0  0  0  0
    0.6667   -2.3148   -0.6594 H   0  0  0  0  0  0  0  0  0  0  0  0
    1.0901   -0.7859   -1.3930 H   0  0  0  0  0  0  0  0  0  0  0  0
   -5.2070    0.4116    1.2748 H   0  0  0  0  0  0  0  0  0  0  0  0
   -5.9263    0.9313   -0.2590 H   0  0  0  0  0  0  0  0  0  0  0  0
   -4.7062    1.9438    0.5320 H   0  0  0  0  0  0  0  0  0  0  0  0
    2.4289   -2.1900    0.9702 H   0  0  0  0  0  0  0  0  0  0  0  0
    4.0815   -0.4750    0.8791 H   0  0  0  0  0  0  0  0  0  0  0  0
    3.4784    0.7391   -1.4981 H   0  0  0  0  0  0  0  0  0  0  0  0
    1.9870    1.2096   -0.6421 H   0  0  0  0  0  0  0  0  0  0  0  0
    3.6292    2.7438   -0.4641 H   0  0  0  0  0  0  0  0  0  0  0  0
  1 10  1  0  0  0  0
  1 28  1  0  0  0  0
  2  3  1  0  0  0  0
  2  4  1  0  0  0  0
  2 11  1  0  0  0  0
  2 12  1  0  0  0  0
  3  5  1  0  0  0  0
  3 13  1  0  0  0  0
  3 14  1  0  0  0  0
  4  6  1  0  0  0  0
  4 15  1  0  0  0  0
  4 16  1  0  0  0  0
  5  7  1  0  0  0  0
  5 17  1  0  0  0  0
  5 18  1  0  0  0  0
  6  8  1  0  0  0  0
  6 19  1  0  0  0  0
  6 20  1  0  0  0  0
  7 21  1  0  0  0  0
  7 22  1  0  0  0  0
  7 23  1  0  0  0  0
  8  9  2  0  0  0  0
  8 24  1  0  0  0  0
  9 10  1  0  0  0  0
  9 25  1  0  0  0  0
 10 26  1  0  0  0  0
 10 27  1  0  0  0  0
M  END
> <PUBCHEM_COMPOUND_CID>
5365027

> <PUBCHEM_CONFORMER_RMSD>
0.6

> <PUBCHEM_CONFORMER_DIVERSEORDER>
1
230
82
207
119
45
272
95
176
275
64
163
43
122
284
197
20
22
282
157
213
3
287
14
242
228
94
201
198
31
108
5
281
169
184
99
231
264
271
175
138
13
37
273
10
76
290
235
245
89
226
51
28
26
174
190
88
4
165
158
276
143
250
151
239
291
16
258
128
274
194
92
140
196
2
142
117
217
118
111
154
60
27
144
57
147
25
237
182
23
233
48
270
105
200
132
141
254
35
199
104
32
289
286
136
46
236
98
159
172
252
81
247
109
120
202
55
8
203
187
61
93
164
17
246
67
209
90
244
74
210
29
63
188
251
148
69
162
161
229
77
115
137
191
49
171
224
97
36
129
150
206
11
6
262
232
80
33
79
160
70
87
280
62
215
166
152
285
18
192
121
195
269
277
124
149
218
216
134
44
189
12
219
131
112
243
114
72
205
59
156
288
19
133
227
78
101
139
279
47
211
96
107
240
85
238
65
265
9
54
106
100
221
168
15
268
177
267
41
125
153
113
86
193
155
91
266
173
126
180
181
83
68
208
73
167
71
204
110
34
116
130
179
40
103
220
7
260
248
135
53
145
278
24
38
123
263
222
58
30
21
212
234
186
39
223
261
66
253
52
183
257
42
214
249
283
170
256
75
56
255
185
241
84
102
50
225
146
259
178
127

> <PUBCHEM_MMFF94_PARTIAL_CHARGES>
8
1 -0.68
10 0.42
24 0.15
25 0.15
28 0.4
6 0.14
8 -0.29
9 -0.29

> <PUBCHEM_EFFECTIVE_ROTOR_COUNT>
6

> <PUBCHEM_PHARMACOPHORE_FEATURES>
5
1 1 acceptor
1 1 donor
1 7 hydrophobe
3 2 3 5 hydrophobe
3 4 6 8 hydrophobe

> <PUBCHEM_HEAVY_ATOM_COUNT>
10

> <PUBCHEM_ATOM_DEF_STEREO_COUNT>
0

> <PUBCHEM_ATOM_UDEF_STEREO_COUNT>
0

> <PUBCHEM_BOND_DEF_STEREO_COUNT>
1

> <PUBCHEM_BOND_UDEF_STEREO_COUNT>
0

> <PUBCHEM_ISOTOPIC_ATOM_COUNT>
0

> <PUBCHEM_COMPONENT_COUNT>
1

> <PUBCHEM_CACTVS_TAUTO_COUNT>
1

> <PUBCHEM_CONFORMER_ID>
0051DD2300000001

> <PUBCHEM_MMFF94_ENERGY>
0.7848

> <PUBCHEM_FEATURE_SELFOVERLAP>
25.384

> <PUBCHEM_SHAPE_FINGERPRINT>
11062470 55 18410855417743147163
122479 349 18262240022578866074
12932764 1 17385996248173185270
13237642 15 17967824876931512419
14123260 362 17489319542516508033
14251710 61 9078849488559027752
14252887 29 12179841676439930408
14415576 193 18343303621891517847
14455015 7 11239995694279696173
15775835 57 18341049722144812428
170605 34 18409167701306018898
177051 138 8214148455761283488
17834072 33 18343014511233016847
18186145 218 18114180804747879743
20606313 2 18410573981036072300
21354914 76 8790886280657923169
22959321 54 18412547608581740856
22959321 60 18187090597664469099
23380061 50 17895199913049745259
23532345 1 18410295770514127067
449060 50 18409452475323807183
449060 62 18408324393230680420
4990 188 13470682633832056191
94968 8 10447932776110948148

> <PUBCHEM_SHAPE_MULTIPOLES>
199.93
9.27
1.48
0.75
7.64
0.45
0.02
4.41
-0.43
-1.71
0
0.06
-0.03
-0.3

> <PUBCHEM_SHAPE_SELFOVERLAP>
356.122

> <PUBCHEM_SHAPE_VOLUME>
129.9

> <PUBCHEM_COORDINATE_TYPE>
2
5
10

$$$$
