5365819
  -OEChem-11232108463D

 37 36  0     1  0  0  0  0  0999 V2000
   -2.8413    0.5149    0.0197 O   0  0  0  0  0  0  0  0  0  0  0  0
   -0.8311    1.6186   -0.2599 O   0  0  0  0  0  0  0  0  0  0  0  0
    1.1289   -2.0122    1.1453 C   0  0  0  0  0  0  0  0  0  0  0  0
    0.0387   -1.6643    0.1533 C   0  0  0  0  0  0  0  0  0  0  0  0
    2.4773   -1.3462    0.8401 C   0  0  0  0  0  0  0  0  0  0  0  0
   -2.2519   -0.6952   -0.4539 C   0  0  1  0  0  0  0  0  0  0  0  0
   -1.1149   -1.0410    0.4653 C   0  0  0  0  0  0  0  0  0  0  0  0
    2.3912    0.1552    0.8300 C   0  0  0  0  0  0  0  0  0  0  0  0
    0.3001   -2.1004   -1.2656 C   0  0  0  0  0  0  0  0  0  0  0  0
   -3.3070   -1.7936   -0.4568 C   0  0  0  0  0  0  0  0  0  0  0  0
    2.7640    1.0029   -0.1473 C   0  0  0  0  0  0  0  0  0  0  0  0
    2.6493    2.4994   -0.0906 C   0  0  0  0  0  0  0  0  0  0  0  0
    3.3691    0.4752   -1.4211 C   0  0  0  0  0  0  0  0  0  0  0  0
   -2.0108    1.5976    0.0643 C   0  0  0  0  0  0  0  0  0  0  0  0
   -2.7614    2.7890    0.5774 C   0  0  0  0  0  0  0  0  0  0  0  0
    1.2611   -3.1013    1.1609 H   0  0  0  0  0  0  0  0  0  0  0  0
    0.8132   -1.7328    2.1591 H   0  0  0  0  0  0  0  0  0  0  0  0
    2.8697   -1.7647   -0.0890 H   0  0  0  0  0  0  0  0  0  0  0  0
    3.1883   -1.6350    1.6241 H   0  0  0  0  0  0  0  0  0  0  0  0
   -1.9178   -0.5202   -1.4827 H   0  0  0  0  0  0  0  0  0  0  0  0
   -1.2697   -0.7912    1.5154 H   0  0  0  0  0  0  0  0  0  0  0  0
    1.9798    0.5929    1.7390 H   0  0  0  0  0  0  0  0  0  0  0  0
    0.7756   -3.0877   -1.2741 H   0  0  0  0  0  0  0  0  0  0  0  0
    0.9692   -1.3956   -1.7666 H   0  0  0  0  0  0  0  0  0  0  0  0
   -0.6047   -2.1999   -1.8703 H   0  0  0  0  0  0  0  0  0  0  0  0
   -2.9037   -2.7439   -0.8207 H   0  0  0  0  0  0  0  0  0  0  0  0
   -3.7184   -1.9501    0.5473 H   0  0  0  0  0  0  0  0  0  0  0  0
   -4.1494   -1.5065   -1.0957 H   0  0  0  0  0  0  0  0  0  0  0  0
    3.6386    2.9634   -0.1542 H   0  0  0  0  0  0  0  0  0  0  0  0
    2.1829    2.8316    0.8428 H   0  0  0  0  0  0  0  0  0  0  0  0
    2.0349    2.8659   -0.9194 H   0  0  0  0  0  0  0  0  0  0  0  0
    4.1852    1.1322   -1.7444 H   0  0  0  0  0  0  0  0  0  0  0  0
    3.8121   -0.5184   -1.3398 H   0  0  0  0  0  0  0  0  0  0  0  0
    2.6174    0.4630   -2.2168 H   0  0  0  0  0  0  0  0  0  0  0  0
   -3.1269    2.5896    1.5879 H   0  0  0  0  0  0  0  0  0  0  0  0
   -3.5917    3.0214   -0.0941 H   0  0  0  0  0  0  0  0  0  0  0  0
   -2.0903    3.6520    0.6139 H   0  0  0  0  0  0  0  0  0  0  0  0
  1  6  1  0  0  0  0
  1 14  1  0  0  0  0
  2 14  2  0  0  0  0
  3  4  1  0  0  0  0
  3  5  1  0  0  0  0
  3 16  1  0  0  0  0
  3 17  1  0  0  0  0
  4  7  2  0  0  0  0
  4  9  1  0  0  0  0
  5  8  1  0  0  0  0
  5 18  1  0  0  0  0
  5 19  1  0  0  0  0
  6  7  1  0  0  0  0
  6 10  1  0  0  0  0
  6 20  1  0  0  0  0
  7 21  1  0  0  0  0
  8 11  2  0  0  0  0
  8 22  1  0  0  0  0
  9 23  1  0  0  0  0
  9 24  1  0  0  0  0
  9 25  1  0  0  0  0
 10 26  1  0  0  0  0
 10 27  1  0  0  0  0
 10 28  1  0  0  0  0
 11 12  1  0  0  0  0
 11 13  1  0  0  0  0
 12 29  1  0  0  0  0
 12 30  1  0  0  0  0
 12 31  1  0  0  0  0
 13 32  1  0  0  0  0
 13 33  1  0  0  0  0
 13 34  1  0  0  0  0
 14 15  1  0  0  0  0
 15 35  1  0  0  0  0
 15 36  1  0  0  0  0
 15 37  1  0  0  0  0
M  END
> <PUBCHEM_COMPOUND_CID>
5365819

> <PUBCHEM_CONFORMER_RMSD>
0.8

> <PUBCHEM_CONFORMER_DIVERSEORDER>
8
6
70
86
208
42
253
132
201
224
179
190
99
5
219
115
161
151
193
223
63
127
130
160
242
23
154
240
246
37
144
66
182
238
83
152
236
48
123
139
40
120
165
155
239
220
109
33
150
75
91
110
232
50
173
229
188
17
60
251
213
191
105
141
113
122
3
79
186
256
30
166
87
234
124
81
197
118
2
62
244
258
111
43
16
80
31
96
56
45
13
61
77
64
38
136
231
137
24
194
36
129
210
131
227
146
20
51
44
203
142
207
171
157
221
134
73
125
89
187
12
199
156
243
59
18
93
241
72
204
9
97
192
76
69
138
167
225
195
52
108
88
95
46
116
101
49
148
248
65
133
247
216
1
169
15
230
206
209
47
67
255
162
94
119
178
35
22
34
126
39
10
117
55
140
218
14
85
29
196
222
153
226
53
217
100
214
4
180
172
254
121
112
57
145
135
149
168
211
237
181
174
28
233
71
147
158
41
250
54
189
102
249
215
183
7
19
27
164
106
163
58
159
21
11
245
114
98
84
104
107
198
74
170
228
185
252
32
184
90
82
235
200
259
176
128
175
202
68
92
26
212
78
177
257
25
143
205
103

> <PUBCHEM_MMFF94_PARTIAL_CHARGES>
16
1 -0.43
11 -0.28
12 0.14
13 0.14
14 0.66
15 0.06
2 -0.57
21 0.15
22 0.15
3 0.14
4 -0.28
5 0.14
6 0.42
7 -0.29
8 -0.29
9 0.14

> <PUBCHEM_EFFECTIVE_ROTOR_COUNT>
6

> <PUBCHEM_PHARMACOPHORE_FEATURES>
4
1 2 acceptor
1 9 hydrophobe
3 11 12 13 hydrophobe
4 3 4 5 8 hydrophobe

> <PUBCHEM_HEAVY_ATOM_COUNT>
15

> <PUBCHEM_ATOM_DEF_STEREO_COUNT>
0

> <PUBCHEM_ATOM_UDEF_STEREO_COUNT>
1

> <PUBCHEM_BOND_DEF_STEREO_COUNT>
1

> <PUBCHEM_BOND_UDEF_STEREO_COUNT>
0

> <PUBCHEM_ISOTOPIC_ATOM_COUNT>
0

> <PUBCHEM_COMPONENT_COUNT>
1

> <PUBCHEM_CACTVS_TAUTO_COUNT>
1

> <PUBCHEM_CONFORMER_ID>
0051E03B00000008

> <PUBCHEM_MMFF94_ENERGY>
18.1245

> <PUBCHEM_FEATURE_SELFOVERLAP>
20.317

> <PUBCHEM_SHAPE_FINGERPRINT>
10498660 4 18338232777412190221
12162725 195 18335129878157462698
12696612 119 18119243965551748906
13618510 140 18333729152199495668
13764800 53 17679028342148517322
14251711 518 18194392531852144158
14251745 187 17550663752704037088
14787075 74 17535748834513202043
15775835 57 18335146358210578388
16945 1 18337389447651375938
20304884 271 18339362955143155505
20539926 19 18339365136960434576
20671657 1 18194967327109083586
21501502 16 18336825286485346651
21524375 3 18187924027816329474
21665062 11 17686903821514802523
22802520 49 18124053449035280318
22959321 54 18262512731574499426
23419403 2 15450839699041246390
23557571 272 17632001027005599346
44154327 71 18263371291295289221
526903 126 17978227484806181672
537710 114 18262793111677590447
5939293 188 18122057598938874176
7097593 13 17899683566696571251
7832392 63 18194959643454860562

> <PUBCHEM_SHAPE_MULTIPOLES>
296.95
5.76
3.22
1.12
0.02
1.32
-0.14
2.06
-0.68
-1
0.23
0.67
-0.4
-1

> <PUBCHEM_SHAPE_SELFOVERLAP>
564.051

> <PUBCHEM_SHAPE_VOLUME>
183.8

> <PUBCHEM_COORDINATE_TYPE>
2
5
10

$$$$
