5365849
  -OEChem-11232109473D

 32 31  0     0  0  0  0  0  0999 V2000
   -3.2097   -0.9749   -0.4784 O   0  0  0  0  0  0  0  0  0  0  0  0
    0.6150    1.9968   -0.7751 C   0  0  0  0  0  0  0  0  0  0  0  0
    2.0055    1.4018   -0.5165 C   0  0  0  0  0  0  0  0  0  0  0  0
   -0.4833    1.3632    0.0529 C   0  0  0  0  0  0  0  0  0  0  0  0
    2.0667   -0.0722   -0.8073 C   0  0  0  0  0  0  0  0  0  0  0  0
   -1.5536    0.7189   -0.4519 C   0  0  0  0  0  0  0  0  0  0  0  0
    2.4730   -1.0640    0.0075 C   0  0  0  0  0  0  0  0  0  0  0  0
   -0.3346    1.5238    1.5443 C   0  0  0  0  0  0  0  0  0  0  0  0
   -2.6907    0.0983    0.2955 C   0  0  0  0  0  0  0  0  0  0  0  0
    2.4700   -2.4912   -0.4722 C   0  0  0  0  0  0  0  0  0  0  0  0
    2.9398   -0.8887    1.4245 C   0  0  0  0  0  0  0  0  0  0  0  0
   -4.2983   -1.6118    0.1766 C   0  0  0  0  0  0  0  0  0  0  0  0
    0.6409    3.0738   -0.5667 H   0  0  0  0  0  0  0  0  0  0  0  0
    0.3782    1.9025   -1.8432 H   0  0  0  0  0  0  0  0  0  0  0  0
    2.3211    1.6442    0.5012 H   0  0  0  0  0  0  0  0  0  0  0  0
    2.7217    1.9034   -1.1794 H   0  0  0  0  0  0  0  0  0  0  0  0
    1.7584   -0.3391   -1.8179 H   0  0  0  0  0  0  0  0  0  0  0  0
   -1.6297    0.6648   -1.5374 H   0  0  0  0  0  0  0  0  0  0  0  0
    0.0441    2.5245    1.7806 H   0  0  0  0  0  0  0  0  0  0  0  0
    0.3712    0.7885    1.9414 H   0  0  0  0  0  0  0  0  0  0  0  0
   -1.2775    1.4233    2.0890 H   0  0  0  0  0  0  0  0  0  0  0  0
   -3.4766    0.8476    0.4421 H   0  0  0  0  0  0  0  0  0  0  0  0
   -2.3680   -0.2934    1.2654 H   0  0  0  0  0  0  0  0  0  0  0  0
    1.8156   -3.1015    0.1590 H   0  0  0  0  0  0  0  0  0  0  0  0
    2.1163   -2.5851   -1.5043 H   0  0  0  0  0  0  0  0  0  0  0  0
    3.4819   -2.9074   -0.4293 H   0  0  0  0  0  0  0  0  0  0  0  0
    3.9520   -1.2918    1.5372 H   0  0  0  0  0  0  0  0  0  0  0  0
    2.9698    0.1500    1.7570 H   0  0  0  0  0  0  0  0  0  0  0  0
    2.2770   -1.4316    2.1067 H   0  0  0  0  0  0  0  0  0  0  0  0
   -4.6593   -2.4209   -0.4639 H   0  0  0  0  0  0  0  0  0  0  0  0
   -5.1165   -0.9035    0.3387 H   0  0  0  0  0  0  0  0  0  0  0  0
   -3.9752   -2.0400    1.1305 H   0  0  0  0  0  0  0  0  0  0  0  0
  1  9  1  0  0  0  0
  1 12  1  0  0  0  0
  2  3  1  0  0  0  0
  2  4  1  0  0  0  0
  2 13  1  0  0  0  0
  2 14  1  0  0  0  0
  3  5  1  0  0  0  0
  3 15  1  0  0  0  0
  3 16  1  0  0  0  0
  4  6  2  0  0  0  0
  4  8  1  0  0  0  0
  5  7  2  0  0  0  0
  5 17  1  0  0  0  0
  6  9  1  0  0  0  0
  6 18  1  0  0  0  0
  7 10  1  0  0  0  0
  7 11  1  0  0  0  0
  8 19  1  0  0  0  0
  8 20  1  0  0  0  0
  8 21  1  0  0  0  0
  9 22  1  0  0  0  0
  9 23  1  0  0  0  0
 10 24  1  0  0  0  0
 10 25  1  0  0  0  0
 10 26  1  0  0  0  0
 11 27  1  0  0  0  0
 11 28  1  0  0  0  0
 11 29  1  0  0  0  0
 12 30  1  0  0  0  0
 12 31  1  0  0  0  0
 12 32  1  0  0  0  0
M  END
> <PUBCHEM_COMPOUND_CID>
5365849

> <PUBCHEM_CONFORMER_RMSD>
0.6

> <PUBCHEM_CONFORMER_DIVERSEORDER>
1
197
148
28
125
187
19
173
106
72
209
203
196
124
75
169
62
50
166
58
56
40
99
60
131
129
34
181
38
155
141
76
98
140
68
115
183
118
84
2
4
111
33
82
201
65
178
110
168
157
51
91
149
53
184
83
67
130
167
100
150
206
191
147
37
32
5
204
198
87
174
126
79
20
114
113
103
127
7
11
137
81
26
199
192
112
151
18
17
117
14
57
78
159
45
104
107
27
208
21
133
16
128
170
185
92
152
36
146
48
30
207
41
88
23
6
93
95
195
47
200
15
132
43
136
61
176
144
180
54
12
156
69
101
179
116
123
161
35
73
74
134
66
194
189
3
31
80
85
205
64
190
109
163
142
139
42
63
49
186
158
25
188
90
202
162
55
102
154
59
135
22
108
89
182
153
97
44
46
9
122
164
165
86
10
193
138
172
121
175
177
71
120
171
13
145
52
24
160
105
143
8
119
70
29
96
39
77
94

> <PUBCHEM_MMFF94_PARTIAL_CHARGES>
14
1 -0.56
10 0.14
11 0.14
12 0.28
17 0.15
18 0.15
2 0.14
3 0.14
4 -0.28
5 -0.29
6 -0.29
7 -0.28
8 0.14
9 0.42

> <PUBCHEM_EFFECTIVE_ROTOR_COUNT>
5

> <PUBCHEM_PHARMACOPHORE_FEATURES>
4
1 1 acceptor
1 8 hydrophobe
3 7 10 11 hydrophobe
4 2 3 4 5 hydrophobe

> <PUBCHEM_HEAVY_ATOM_COUNT>
12

> <PUBCHEM_ATOM_DEF_STEREO_COUNT>
0

> <PUBCHEM_ATOM_UDEF_STEREO_COUNT>
0

> <PUBCHEM_BOND_DEF_STEREO_COUNT>
1

> <PUBCHEM_BOND_UDEF_STEREO_COUNT>
0

> <PUBCHEM_ISOTOPIC_ATOM_COUNT>
0

> <PUBCHEM_COMPONENT_COUNT>
1

> <PUBCHEM_CACTVS_TAUTO_COUNT>
1

> <PUBCHEM_CONFORMER_ID>
0051E05900000001

> <PUBCHEM_MMFF94_ENERGY>
14.5291

> <PUBCHEM_FEATURE_SELFOVERLAP>
20.317

> <PUBCHEM_SHAPE_FINGERPRINT>
11769659 78 18409166619232580245
14251705 54 18411421674410345687
14251717 144 18337672031030348671
14350558 41 18409731789425546341
15375462 189 18130509755174343317
15757776 16 18187085078853059100
17834072 14 18116411709719528804
18186145 218 12035451601535003631
20201158 50 18260834850944749387
20291156 8 18339648845219983759
20645477 70 18262234542733372399
20653085 51 10809641272052293516
20671657 53 17967526848512727399
21354914 74 18261107504132500051
23500284 5 18271532983350891123
23532345 11 17984974904202828312
59391676 29 18411418431820267735
8199 65 18337676428728687238
94968 8 18334864960348080879
9882013 296 13901609883962971933

> <PUBCHEM_SHAPE_MULTIPOLES>
241.09
6.18
2.49
1.18
5.5
0.49
0.45
5.15
0.25
-0.62
-0.23
-0.55
-0.23
-0.31

> <PUBCHEM_SHAPE_SELFOVERLAP>
444.265

> <PUBCHEM_SHAPE_VOLUME>
154

> <PUBCHEM_COORDINATE_TYPE>
2
5
10

$$$$
