5365699
  -OEChem-11232109133D

 25 24  0     0  0  0  0  0  0999 V2000
    0.8139   -0.1708    0.1474 O   0  0  0  0  0  0  0  0  0  0  0  0
    2.5607    1.1753   -0.0351 O   0  0  0  0  0  0  0  0  0  0  0  0
    2.9267   -1.0924    0.1563 O   0  0  0  0  0  0  0  0  0  0  0  0
   -1.2800   -1.3476    0.3258 C   0  0  0  0  0  0  0  0  0  0  0  0
    0.2390   -1.4641    0.2833 C   0  0  0  0  0  0  0  0  0  0  0  0
   -1.8275   -0.7533   -0.9413 C   0  0  0  0  0  0  0  0  0  0  0  0
   -2.8649    1.2111    0.2208 C   0  0  0  0  0  0  0  0  0  0  0  0
   -2.5334    0.3862   -0.9873 C   0  0  0  0  0  0  0  0  0  0  0  0
   -4.1856    0.7806    0.8400 C   0  0  0  0  0  0  0  0  0  0  0  0
    2.1787   -0.1259    0.0958 C   0  0  0  0  0  0  0  0  0  0  0  0
    3.9726    1.4008   -0.1057 C   0  0  0  0  0  0  0  0  0  0  0  0
   -1.7078   -2.3509    0.4410 H   0  0  0  0  0  0  0  0  0  0  0  0
   -1.5674   -0.7904    1.2204 H   0  0  0  0  0  0  0  0  0  0  0  0
    0.5926   -1.9248    1.2133 H   0  0  0  0  0  0  0  0  0  0  0  0
    0.5480   -2.0937   -0.5604 H   0  0  0  0  0  0  0  0  0  0  0  0
   -1.6470   -1.2937   -1.8669 H   0  0  0  0  0  0  0  0  0  0  0  0
   -2.0659    1.2059    0.9684 H   0  0  0  0  0  0  0  0  0  0  0  0
   -2.9481    2.2572   -0.0995 H   0  0  0  0  0  0  0  0  0  0  0  0
   -2.9079    0.7317   -1.9472 H   0  0  0  0  0  0  0  0  0  0  0  0
   -4.4335    1.4292    1.6865 H   0  0  0  0  0  0  0  0  0  0  0  0
   -4.1382   -0.2496    1.2081 H   0  0  0  0  0  0  0  0  0  0  0  0
   -5.0043    0.8464    0.1151 H   0  0  0  0  0  0  0  0  0  0  0  0
    4.4574    1.0559    0.8126 H   0  0  0  0  0  0  0  0  0  0  0  0
    4.1402    2.4762   -0.2086 H   0  0  0  0  0  0  0  0  0  0  0  0
    4.3936    0.8945   -0.9795 H   0  0  0  0  0  0  0  0  0  0  0  0
  1  5  1  0  0  0  0
  1 10  1  0  0  0  0
  2 10  1  0  0  0  0
  2 11  1  0  0  0  0
  3 10  2  0  0  0  0
  4  5  1  0  0  0  0
  4  6  1  0  0  0  0
  4 12  1  0  0  0  0
  4 13  1  0  0  0  0
  5 14  1  0  0  0  0
  5 15  1  0  0  0  0
  6  8  2  0  0  0  0
  6 16  1  0  0  0  0
  7  8  1  0  0  0  0
  7  9  1  0  0  0  0
  7 17  1  0  0  0  0
  7 18  1  0  0  0  0
  8 19  1  0  0  0  0
  9 20  1  0  0  0  0
  9 21  1  0  0  0  0
  9 22  1  0  0  0  0
 11 23  1  0  0  0  0
 11 24  1  0  0  0  0
 11 25  1  0  0  0  0
M  END
> <PUBCHEM_COMPOUND_CID>
5365699

> <PUBCHEM_CONFORMER_RMSD>
0.6

> <PUBCHEM_CONFORMER_DIVERSEORDER>
1
139
9
35
10
25
56
2
41
19
12
16
91
67
28
38
36
80
110
58
31
47
72
94
46
99
120
30
70
51
95
14
137
101
138
132
27
86
8
37
87
144
4
113
7
23
136
13
59
60
63
100
49
55
42
129
92
74
123
69
3
115
11
33
121
134
78
40
103
64
82
105
62
43
5
143
66
106
140
76
116
102
44
15
133
119
98
39
50
135
130
17
18
45
83
65
96
34
90
61
79
6
117
81
57
85
32
68
89
53
24
128
75
71
20
21
54
114
142
131
73
112
52
111
26
126
109
145
84
88
141
93
107
118
97
124
29
22
125
127
122
77
104
108
48

> <PUBCHEM_MMFF94_PARTIAL_CHARGES>
12
1 -0.43
10 0.87
11 0.28
16 0.15
19 0.15
2 -0.43
3 -0.57
4 0.14
5 0.28
6 -0.29
7 0.14
8 -0.29

> <PUBCHEM_EFFECTIVE_ROTOR_COUNT>
6

> <PUBCHEM_PHARMACOPHORE_FEATURES>
1
1 9 hydrophobe

> <PUBCHEM_HEAVY_ATOM_COUNT>
11

> <PUBCHEM_ATOM_DEF_STEREO_COUNT>
0

> <PUBCHEM_ATOM_UDEF_STEREO_COUNT>
0

> <PUBCHEM_BOND_DEF_STEREO_COUNT>
1

> <PUBCHEM_BOND_UDEF_STEREO_COUNT>
0

> <PUBCHEM_ISOTOPIC_ATOM_COUNT>
0

> <PUBCHEM_COMPONENT_COUNT>
1

> <PUBCHEM_CACTVS_TAUTO_COUNT>
1

> <PUBCHEM_CONFORMER_ID>
0051DFC300000001

> <PUBCHEM_MMFF94_ENERGY>
10.0203

> <PUBCHEM_FEATURE_SELFOVERLAP>
5.074

> <PUBCHEM_SHAPE_FINGERPRINT>
10149128 111 18412829083621579369
10857977 72 16081659881088140015
11127187 94 13973964346103599669
12932764 1 17385714777559812370
13549 16 10951766331850756643
14123260 362 18272381900659013952
14325111 11 18408881845367512934
15775835 57 18342177765040044425
170605 34 18338518543266918819
177051 138 10809338940793404312
17834072 14 10015578359713060363
18186145 218 18410008814963799062
20211469 26 8070029956397563241
20653085 51 18343588416957296791
20711983 171 17988922279690041861
20711985 344 12894530818247204779
20828058 19 9007056859695953771
21028194 46 18187085010012360447
22485316 2 8430310230026965915
23500284 214 18335424594518009137
3086196 2 13479131298581308797
3248919 1 18339625820000491086
42627469 27 18343016649456940491

> <PUBCHEM_SHAPE_MULTIPOLES>
208.77
7.36
1.63
0.87
1.67
0.08
0.12
-4.09
-0.73
0.39
-0.13
-0.71
0
-0.44

> <PUBCHEM_SHAPE_SELFOVERLAP>
386.493

> <PUBCHEM_SHAPE_VOLUME>
131.6

> <PUBCHEM_COORDINATE_TYPE>
2
5
10

$$$$
