5365587
  -OEChem-11232109013D

 21 20  0     0  0  0  0  0  0999 V2000
    1.4666    0.4960    0.0178 O   0  0  0  0  0  0  0  0  0  0  0  0
    3.7525    0.1326    0.0708 O   0  0  0  0  0  0  0  0  0  0  0  0
   -0.2789   -1.0804    0.5363 C   0  0  0  0  0  0  0  0  0  0  0  0
   -0.9683   -0.8922   -0.7857 C   0  0  0  0  0  0  0  0  0  0  0  0
   -2.4361    0.9629    0.0451 C   0  0  0  0  0  0  0  0  0  0  0  0
    1.2227   -0.8434    0.4277 C   0  0  0  0  0  0  0  0  0  0  0  0
   -1.9290    0.0179   -1.0036 C   0  0  0  0  0  0  0  0  0  0  0  0
   -3.6064    0.3649    0.8103 C   0  0  0  0  0  0  0  0  0  0  0  0
    2.7768    0.8417   -0.1188 C   0  0  0  0  0  0  0  0  0  0  0  0
   -0.4503   -2.1133    0.8630 H   0  0  0  0  0  0  0  0  0  0  0  0
   -0.6819   -0.4416    1.3256 H   0  0  0  0  0  0  0  0  0  0  0  0
   -0.6733   -1.5463   -1.6021 H   0  0  0  0  0  0  0  0  0  0  0  0
    1.6879   -1.0165    1.4054 H   0  0  0  0  0  0  0  0  0  0  0  0
    1.6650   -1.5362   -0.2991 H   0  0  0  0  0  0  0  0  0  0  0  0
   -1.6508    1.2924    0.7322 H   0  0  0  0  0  0  0  0  0  0  0  0
   -2.7732    1.8763   -0.4608 H   0  0  0  0  0  0  0  0  0  0  0  0
   -2.3871    0.0702   -1.9877 H   0  0  0  0  0  0  0  0  0  0  0  0
   -3.9938    1.0905    1.5327 H   0  0  0  0  0  0  0  0  0  0  0  0
   -3.3072   -0.5323    1.3623 H   0  0  0  0  0  0  0  0  0  0  0  0
   -4.4249    0.0928    0.1351 H   0  0  0  0  0  0  0  0  0  0  0  0
    2.8287    1.8941   -0.4377 H   0  0  0  0  0  0  0  0  0  0  0  0
  1  6  1  0  0  0  0
  1  9  1  0  0  0  0
  2  9  2  0  0  0  0
  3  4  1  0  0  0  0
  3  6  1  0  0  0  0
  3 10  1  0  0  0  0
  3 11  1  0  0  0  0
  4  7  2  0  0  0  0
  4 12  1  0  0  0  0
  5  7  1  0  0  0  0
  5  8  1  0  0  0  0
  5 15  1  0  0  0  0
  5 16  1  0  0  0  0
  6 13  1  0  0  0  0
  6 14  1  0  0  0  0
  7 17  1  0  0  0  0
  8 18  1  0  0  0  0
  8 19  1  0  0  0  0
  8 20  1  0  0  0  0
  9 21  1  0  0  0  0
M  END
> <PUBCHEM_COMPOUND_CID>
5365587

> <PUBCHEM_CONFORMER_RMSD>
0.6

> <PUBCHEM_CONFORMER_DIVERSEORDER>
1
29
51
58
14
27
43
53
23
57
20
59
16
21
35
38
65
10
25
33
46
24
18
28
17
63
22
26
42
31
61
6
56
50
13
4
66
9
48
12
45
5
55
8
30
2
54
11
47
68
36
67
39
19
40
34
3
15
37
44
49
60
7
41
62
52
32
64

> <PUBCHEM_MMFF94_PARTIAL_CHARGES>
11
1 -0.43
12 0.15
17 0.15
2 -0.57
21 0.06
3 0.14
4 -0.29
5 0.14
6 0.28
7 -0.29
9 0.66

> <PUBCHEM_EFFECTIVE_ROTOR_COUNT>
5

> <PUBCHEM_PHARMACOPHORE_FEATURES>
2
1 2 acceptor
1 8 hydrophobe

> <PUBCHEM_HEAVY_ATOM_COUNT>
9

> <PUBCHEM_ATOM_DEF_STEREO_COUNT>
0

> <PUBCHEM_ATOM_UDEF_STEREO_COUNT>
0

> <PUBCHEM_BOND_DEF_STEREO_COUNT>
1

> <PUBCHEM_BOND_UDEF_STEREO_COUNT>
0

> <PUBCHEM_ISOTOPIC_ATOM_COUNT>
0

> <PUBCHEM_COMPONENT_COUNT>
1

> <PUBCHEM_CACTVS_TAUTO_COUNT>
1

> <PUBCHEM_CONFORMER_ID>
0051DF5300000001

> <PUBCHEM_MMFF94_ENERGY>
5.3636

> <PUBCHEM_FEATURE_SELFOVERLAP>
10.148

> <PUBCHEM_SHAPE_FINGERPRINT>
10149128 111 18341898488907182873
10857977 72 16081093653905834223
11062470 55 13039188099909465536
13549 16 11815622930764171057
14390081 3 18342729749846786176
15775835 57 18343584019005698841
170605 34 18409450262845957099
20201158 50 11527950045103615749
20211469 26 10737279160548511968
20653085 51 18059297663939873256
20711985 344 12822751391987368499
20828058 19 9222961347882150940
21028194 46 18259985980781436356
21293036 1 14045739326766231701
23235685 24 18334009501551883448
42627469 27 18413668002556404418

> <PUBCHEM_SHAPE_MULTIPOLES>
173.48
5.84
1.14
0.92
1.81
0.1
0.09
-2.11
-0.84
0
-0.04
-0.56
0.09
-0.26

> <PUBCHEM_SHAPE_SELFOVERLAP>
315.833

> <PUBCHEM_SHAPE_VOLUME>
110

> <PUBCHEM_COORDINATE_TYPE>
2
5
10

$$$$
