5365811
  -OEChem-11232108533D

 17 16  0     0  0  0  0  0  0999 V2000
    0.6994    1.3532   -0.0037 O   0  0  0  0  0  0  0  0  0  0  0  0
    1.7109   -0.8403   -0.0084 C   0  0  0  0  0  0  0  0  0  0  0  0
    0.5473    0.1345   -0.0047 C   0  0  0  0  0  0  0  0  0  0  0  0
    3.0577   -0.1384    0.0123 C   0  0  0  0  0  0  0  0  0  0  0  0
   -0.8082   -0.4871   -0.0023 C   0  0  0  0  0  0  0  0  0  0  0  0
   -1.9120    0.2711    0.0022 C   0  0  0  0  0  0  0  0  0  0  0  0
   -3.2950   -0.2930    0.0047 C   0  0  0  0  0  0  0  0  0  0  0  0
    1.6399   -1.4611   -0.9081 H   0  0  0  0  0  0  0  0  0  0  0  0
    1.6264   -1.4852    0.8731 H   0  0  0  0  0  0  0  0  0  0  0  0
    3.1781    0.5073   -0.8640 H   0  0  0  0  0  0  0  0  0  0  0  0
    3.8698   -0.8718    0.0106 H   0  0  0  0  0  0  0  0  0  0  0  0
    3.1620    0.4859    0.9059 H   0  0  0  0  0  0  0  0  0  0  0  0
   -0.8638   -1.5702   -0.0042 H   0  0  0  0  0  0  0  0  0  0  0  0
   -1.8393    1.3552    0.0040 H   0  0  0  0  0  0  0  0  0  0  0  0
   -3.8391    0.0509   -0.8803 H   0  0  0  0  0  0  0  0  0  0  0  0
   -3.2972   -1.3877    0.0026 H   0  0  0  0  0  0  0  0  0  0  0  0
   -3.8343    0.0474    0.8939 H   0  0  0  0  0  0  0  0  0  0  0  0
  1  3  2  0  0  0  0
  2  3  1  0  0  0  0
  2  4  1  0  0  0  0
  2  8  1  0  0  0  0
  2  9  1  0  0  0  0
  3  5  1  0  0  0  0
  4 10  1  0  0  0  0
  4 11  1  0  0  0  0
  4 12  1  0  0  0  0
  5  6  2  0  0  0  0
  5 13  1  0  0  0  0
  6  7  1  0  0  0  0
  6 14  1  0  0  0  0
  7 15  1  0  0  0  0
  7 16  1  0  0  0  0
  7 17  1  0  0  0  0
M  END
> <PUBCHEM_COMPOUND_CID>
5365811

> <PUBCHEM_CONFORMER_RMSD>
0.4

> <PUBCHEM_CONFORMER_DIVERSEORDER>
1
11
14
2
10
3
9
6
8
7
5
4
12
13

> <PUBCHEM_MMFF94_PARTIAL_CHARGES>
8
1 -0.57
13 0.15
14 0.15
2 0.06
3 0.49
5 -0.14
6 -0.29
7 0.14

> <PUBCHEM_EFFECTIVE_ROTOR_COUNT>
2

> <PUBCHEM_PHARMACOPHORE_FEATURES>
3
1 1 acceptor
1 4 hydrophobe
1 7 hydrophobe

> <PUBCHEM_HEAVY_ATOM_COUNT>
7

> <PUBCHEM_ATOM_DEF_STEREO_COUNT>
0

> <PUBCHEM_ATOM_UDEF_STEREO_COUNT>
0

> <PUBCHEM_BOND_DEF_STEREO_COUNT>
1

> <PUBCHEM_BOND_UDEF_STEREO_COUNT>
0

> <PUBCHEM_ISOTOPIC_ATOM_COUNT>
0

> <PUBCHEM_COMPONENT_COUNT>
1

> <PUBCHEM_CACTVS_TAUTO_COUNT>
5

> <PUBCHEM_CONFORMER_ID>
0051E03300000001

> <PUBCHEM_MMFF94_ENERGY>
3.4828

> <PUBCHEM_FEATURE_SELFOVERLAP>
15.223

> <PUBCHEM_SHAPE_FINGERPRINT>
11062470 55 17989487415729030035
12932764 1 15769765819440271631
14325111 11 18410856555577021795
23552423 10 17972042439921150234
29004967 10 18409170991329816202
5460574 1 9223228546350535939

> <PUBCHEM_SHAPE_MULTIPOLES>
138.19
4.79
0.96
0.6
1.02
0.17
0
-0.65
-0.02
-0.22
0
0.01
-0.02
0

> <PUBCHEM_SHAPE_SELFOVERLAP>
249.693

> <PUBCHEM_SHAPE_VOLUME>
89.2

> <PUBCHEM_COORDINATE_TYPE>
2
5
10

$$$$
