5366203
  -OEChem-11232109453D

 25 24  0     1  0  0  0  0  0999 V2000
    0.4304    1.8614   -0.1407 O   0  0  0  0  0  0  0  0  0  0  0  0
   -0.5916   -0.3092   -0.3463 C   0  0  0  0  0  0  0  0  0  0  0  0
   -1.9440    0.1188    0.2310 C   0  0  0  0  0  0  0  0  0  0  0  0
    0.5887    0.4900    0.2245 C   0  0  1  0  0  0  0  0  0  0  0  0
   -3.1180   -0.7000   -0.3117 C   0  0  0  0  0  0  0  0  0  0  0  0
   -4.4618   -0.2955    0.2742 C   0  0  0  0  0  0  0  0  0  0  0  0
    1.9142    0.0344   -0.3146 C   0  0  0  0  0  0  0  0  0  0  0  0
    2.9319   -0.3726    0.4582 C   0  0  0  0  0  0  0  0  0  0  0  0
    4.2501   -0.8273   -0.0746 C   0  0  0  0  0  0  0  0  0  0  0  0
   -0.6282   -0.1818   -1.4364 H   0  0  0  0  0  0  0  0  0  0  0  0
   -0.4382   -1.3777   -0.1496 H   0  0  0  0  0  0  0  0  0  0  0  0
   -2.1194    1.1790    0.0120 H   0  0  0  0  0  0  0  0  0  0  0  0
   -1.9150    0.0217    1.3233 H   0  0  0  0  0  0  0  0  0  0  0  0
    0.5676    0.4348    1.3195 H   0  0  0  0  0  0  0  0  0  0  0  0
   -2.9473   -1.7627   -0.1018 H   0  0  0  0  0  0  0  0  0  0  0  0
   -3.1606   -0.5945   -1.4023 H   0  0  0  0  0  0  0  0  0  0  0  0
   -4.6844    0.7529    0.0520 H   0  0  0  0  0  0  0  0  0  0  0  0
   -5.2620   -0.9113   -0.1480 H   0  0  0  0  0  0  0  0  0  0  0  0
   -4.4684   -0.4253    1.3611 H   0  0  0  0  0  0  0  0  0  0  0  0
    2.0392    0.0492   -1.3950 H   0  0  0  0  0  0  0  0  0  0  0  0
    1.1443    2.3657    0.2865 H   0  0  0  0  0  0  0  0  0  0  0  0
    2.8139   -0.3850    1.5384 H   0  0  0  0  0  0  0  0  0  0  0  0
    5.0499   -0.1928    0.3193 H   0  0  0  0  0  0  0  0  0  0  0  0
    4.2917   -0.7896   -1.1677 H   0  0  0  0  0  0  0  0  0  0  0  0
    4.4428   -1.8580    0.2386 H   0  0  0  0  0  0  0  0  0  0  0  0
  1  4  1  0  0  0  0
  1 21  1  0  0  0  0
  2  3  1  0  0  0  0
  2  4  1  0  0  0  0
  2 10  1  0  0  0  0
  2 11  1  0  0  0  0
  3  5  1  0  0  0  0
  3 12  1  0  0  0  0
  3 13  1  0  0  0  0
  4  7  1  0  0  0  0
  4 14  1  0  0  0  0
  5  6  1  0  0  0  0
  5 15  1  0  0  0  0
  5 16  1  0  0  0  0
  6 17  1  0  0  0  0
  6 18  1  0  0  0  0
  6 19  1  0  0  0  0
  7  8  2  0  0  0  0
  7 20  1  0  0  0  0
  8  9  1  0  0  0  0
  8 22  1  0  0  0  0
  9 23  1  0  0  0  0
  9 24  1  0  0  0  0
  9 25  1  0  0  0  0
M  END
> <PUBCHEM_COMPOUND_CID>
5366203

> <PUBCHEM_CONFORMER_RMSD>
0.6

> <PUBCHEM_CONFORMER_DIVERSEORDER>
4
35
33
29
3
26
38
2
36
14
37
28
10
25
31
39
20
18
34
30
7
19
1
32
9
27
21
12
8
24
15
11
13
6
17
5
23
16
22

> <PUBCHEM_MMFF94_PARTIAL_CHARGES>
8
1 -0.68
20 0.15
21 0.4
22 0.15
4 0.42
7 -0.29
8 -0.29
9 0.14

> <PUBCHEM_EFFECTIVE_ROTOR_COUNT>
4

> <PUBCHEM_PHARMACOPHORE_FEATURES>
4
1 1 acceptor
1 1 donor
1 6 hydrophobe
1 9 hydrophobe

> <PUBCHEM_HEAVY_ATOM_COUNT>
9

> <PUBCHEM_ATOM_DEF_STEREO_COUNT>
0

> <PUBCHEM_ATOM_UDEF_STEREO_COUNT>
1

> <PUBCHEM_BOND_DEF_STEREO_COUNT>
1

> <PUBCHEM_BOND_UDEF_STEREO_COUNT>
0

> <PUBCHEM_ISOTOPIC_ATOM_COUNT>
0

> <PUBCHEM_COMPONENT_COUNT>
1

> <PUBCHEM_CACTVS_TAUTO_COUNT>
1

> <PUBCHEM_CONFORMER_ID>
0051E1BB00000004

> <PUBCHEM_MMFF94_ENERGY>
1.5408

> <PUBCHEM_FEATURE_SELFOVERLAP>
20.297

> <PUBCHEM_SHAPE_FINGERPRINT>
10219947 1 18273496788248233710
11062470 55 13542466466601906283
114248 4 15502380036394288310
12032990 46 18410294696476806382
12932764 1 13696137574928213727
13690532 89 18412543223699615319
14252887 29 18273221876235161570
18342897 14 18410294705251272873
20711985 327 18273219707044412660
20871998 22 18200883859555796806
21119208 17 15213020444615797682
21293036 1 13045944607415270767
22485316 2 18408316692206736002
23402539 116 17131826552602305341
23402655 69 10809611650222048355

> <PUBCHEM_SHAPE_MULTIPOLES>
179.35
8.01
1.09
0.69
1.67
0.46
-0.01
-3
-0.57
-0.26
0.06
-0.01
-0.03
-0.08

> <PUBCHEM_SHAPE_SELFOVERLAP>
319.587

> <PUBCHEM_SHAPE_VOLUME>
117.2

> <PUBCHEM_COORDINATE_TYPE>
2
5
10

$$$$
