5366040
  -OEChem-11232108453D

 28 28  0     0  0  0  0  0  0999 V2000
    0.2903    0.9121    0.1147 O   0  0  0  0  0  0  0  0  0  0  0  0
    1.3126   -0.5894    1.5427 O   0  0  0  0  0  0  0  0  0  0  0  0
   -1.0142    0.4004    0.3657 C   0  0  0  0  0  0  0  0  0  0  0  0
   -2.0601    1.3782   -0.1683 C   0  0  0  0  0  0  0  0  0  0  0  0
   -1.1557   -0.9799   -0.2740 C   0  0  0  0  0  0  0  0  0  0  0  0
   -3.4742    0.8289   -0.0104 C   0  0  0  0  0  0  0  0  0  0  0  0
   -2.5697   -1.5294   -0.1161 C   0  0  0  0  0  0  0  0  0  0  0  0
   -3.6151   -0.5515   -0.6476 C   0  0  0  0  0  0  0  0  0  0  0  0
    1.3242    0.1478    0.5698 C   0  0  0  0  0  0  0  0  0  0  0  0
    2.4798    0.3660   -0.3267 C   0  0  0  0  0  0  0  0  0  0  0  0
    3.6341   -0.2735   -0.0974 C   0  0  0  0  0  0  0  0  0  0  0  0
    4.8479   -0.1096   -0.9524 C   0  0  0  0  0  0  0  0  0  0  0  0
   -1.1507    0.3184    1.4527 H   0  0  0  0  0  0  0  0  0  0  0  0
   -1.8581    1.5924   -1.2259 H   0  0  0  0  0  0  0  0  0  0  0  0
   -1.9686    2.3395    0.3514 H   0  0  0  0  0  0  0  0  0  0  0  0
   -0.4552   -1.7024    0.1578 H   0  0  0  0  0  0  0  0  0  0  0  0
   -0.8983   -0.9190   -1.3398 H   0  0  0  0  0  0  0  0  0  0  0  0
   -4.1918    1.5203   -0.4660 H   0  0  0  0  0  0  0  0  0  0  0  0
   -3.7239    0.7654    1.0558 H   0  0  0  0  0  0  0  0  0  0  0  0
   -2.7660   -1.7328    0.9439 H   0  0  0  0  0  0  0  0  0  0  0  0
   -2.6563   -2.4844   -0.6464 H   0  0  0  0  0  0  0  0  0  0  0  0
   -4.6194   -0.9453   -0.4554 H   0  0  0  0  0  0  0  0  0  0  0  0
   -3.5096   -0.4622   -1.7359 H   0  0  0  0  0  0  0  0  0  0  0  0
    2.3669    1.0481   -1.1624 H   0  0  0  0  0  0  0  0  0  0  0  0
    3.7317   -0.9543    0.7441 H   0  0  0  0  0  0  0  0  0  0  0  0
    5.6798    0.2674   -0.3497 H   0  0  0  0  0  0  0  0  0  0  0  0
    4.6821    0.5880   -1.7795 H   0  0  0  0  0  0  0  0  0  0  0  0
    5.1392   -1.0763   -1.3746 H   0  0  0  0  0  0  0  0  0  0  0  0
  1  3  1  0  0  0  0
  1  9  1  0  0  0  0
  2  9  2  0  0  0  0
  3  4  1  0  0  0  0
  3  5  1  0  0  0  0
  3 13  1  0  0  0  0
  4  6  1  0  0  0  0
  4 14  1  0  0  0  0
  4 15  1  0  0  0  0
  5  7  1  0  0  0  0
  5 16  1  0  0  0  0
  5 17  1  0  0  0  0
  6  8  1  0  0  0  0
  6 18  1  0  0  0  0
  6 19  1  0  0  0  0
  7  8  1  0  0  0  0
  7 20  1  0  0  0  0
  7 21  1  0  0  0  0
  8 22  1  0  0  0  0
  8 23  1  0  0  0  0
  9 10  1  0  0  0  0
 10 11  2  0  0  0  0
 10 24  1  0  0  0  0
 11 12  1  0  0  0  0
 11 25  1  0  0  0  0
 12 26  1  0  0  0  0
 12 27  1  0  0  0  0
 12 28  1  0  0  0  0
M  END
> <PUBCHEM_COMPOUND_CID>
5366040

> <PUBCHEM_CONFORMER_RMSD>
0.6

> <PUBCHEM_CONFORMER_DIVERSEORDER>
1
20
15
21
11
18
26
27
14
16
2
23
7
25
19
10
17
6
8
9
5
4
3
22
24
12
13

> <PUBCHEM_MMFF94_PARTIAL_CHARGES>
9
1 -0.43
10 -0.14
11 -0.29
12 0.14
2 -0.57
24 0.15
25 0.15
3 0.28
9 0.71

> <PUBCHEM_EFFECTIVE_ROTOR_COUNT>
4.2

> <PUBCHEM_PHARMACOPHORE_FEATURES>
3
1 12 hydrophobe
1 2 acceptor
6 3 4 5 6 7 8 rings

> <PUBCHEM_HEAVY_ATOM_COUNT>
12

> <PUBCHEM_ATOM_DEF_STEREO_COUNT>
0

> <PUBCHEM_ATOM_UDEF_STEREO_COUNT>
0

> <PUBCHEM_BOND_DEF_STEREO_COUNT>
1

> <PUBCHEM_BOND_UDEF_STEREO_COUNT>
0

> <PUBCHEM_ISOTOPIC_ATOM_COUNT>
0

> <PUBCHEM_COMPONENT_COUNT>
1

> <PUBCHEM_CACTVS_TAUTO_COUNT>
1

> <PUBCHEM_CONFORMER_ID>
0051E11800000001

> <PUBCHEM_MMFF94_ENERGY>
14.4104

> <PUBCHEM_FEATURE_SELFOVERLAP>
15.223

> <PUBCHEM_SHAPE_FINGERPRINT>
10465860 250 17346596344656327314
10465860 71 18411426119922672924
10751810 167 18407761443060948774
12032990 46 18060138773097204375
12119455 92 14634866470512681906
12186901 62 18410856534133827685
124424 183 15913330169602596313
12932764 1 18041547088128717945
14252887 29 14045750305282980332
14577589 140 17632294592510232231
14993402 34 18260542325412812229
15775835 57 18040433257063912461
17870717 6 18130522859140786398
18186145 218 17603585270351870908
1986462 14 18343022185469221180
200 152 15051728677448388789
20201158 50 17560806515335898998
20279233 1 17275105028949929022
20281407 28 17346600781172999006
20325693 3 18412551998238374749
20432913 95 15410900639257088334
20645476 183 17967527995717700183
20645477 70 16630526207275467068
20671657 53 17561373880927215552
20711985 327 13326854439876617418
20871999 31 18411419518199067420
21119208 17 18260831496865298830
21499 59 16515688857620728866
22485316 2 17775564243407177718
22926399 37 16298386872342951645
23402539 116 18342734083564000036
23402655 69 17894625911955697116
23403322 49 17703516506277139326
23559900 14 18202561766371971400
42 15 10159705685714732500
528716 315 18259988197000508755
53748568 43 18040710355426854579
7364860 26 18056755661702715592
8030462 33 18040423395845335833
93112 12 18411701010577245212

> <PUBCHEM_SHAPE_MULTIPOLES>
235.22
7.97
1.25
0.92
6.47
0.08
-0.17
0.69
2.51
-1.18
0.05
0.46
0.09
-0.08

> <PUBCHEM_SHAPE_SELFOVERLAP>
460.037

> <PUBCHEM_SHAPE_VOLUME>
139.8

> <PUBCHEM_COORDINATE_TYPE>
2
5
10

$$$$
