5366038
  -OEChem-11232109033D

 30 29  0     0  0  0  0  0  0999 V2000
    1.0741   -0.2418   -0.0045 O   0  0  0  0  0  0  0  0  0  0  0  0
    2.3813    1.6634    0.0221 O   0  0  0  0  0  0  0  0  0  0  0  0
   -2.6260    0.4100   -0.0225 C   0  0  0  0  0  0  0  0  0  0  0  0
   -3.8727   -0.4790   -0.0042 C   0  0  0  0  0  0  0  0  0  0  0  0
   -1.3173   -0.3784   -0.0126 C   0  0  0  0  0  0  0  0  0  0  0  0
   -5.1824    0.3096   -0.0390 C   0  0  0  0  0  0  0  0  0  0  0  0
   -0.1078    0.5469    0.0019 C   0  0  0  0  0  0  0  0  0  0  0  0
   -6.3878   -0.6137    0.0540 C   0  0  0  0  0  0  0  0  0  0  0  0
    2.2509    0.4497    0.0071 C   0  0  0  0  0  0  0  0  0  0  0  0
    3.3576   -0.5311   -0.0027 C   0  0  0  0  0  0  0  0  0  0  0  0
    4.6278   -0.1065    0.0049 C   0  0  0  0  0  0  0  0  0  0  0  0
    5.8024   -1.0290   -0.0045 C   0  0  0  0  0  0  0  0  0  0  0  0
   -2.6530    1.0784    0.8471 H   0  0  0  0  0  0  0  0  0  0  0  0
   -2.6555    1.0491   -0.9137 H   0  0  0  0  0  0  0  0  0  0  0  0
   -3.8402   -1.1621   -0.8621 H   0  0  0  0  0  0  0  0  0  0  0  0
   -3.8492   -1.1035    0.8977 H   0  0  0  0  0  0  0  0  0  0  0  0
   -1.2653   -1.0360   -0.8892 H   0  0  0  0  0  0  0  0  0  0  0  0
   -1.2800   -1.0399    0.8618 H   0  0  0  0  0  0  0  0  0  0  0  0
   -5.2096    1.0207    0.7946 H   0  0  0  0  0  0  0  0  0  0  0  0
   -5.2401    0.8923   -0.9656 H   0  0  0  0  0  0  0  0  0  0  0  0
   -0.1193    1.1931   -0.8839 H   0  0  0  0  0  0  0  0  0  0  0  0
   -0.1245    1.1724    0.9022 H   0  0  0  0  0  0  0  0  0  0  0  0
   -7.3139   -0.0312    0.0249 H   0  0  0  0  0  0  0  0  0  0  0  0
   -6.4050   -1.3213   -0.7810 H   0  0  0  0  0  0  0  0  0  0  0  0
   -6.3745   -1.1840    0.9883 H   0  0  0  0  0  0  0  0  0  0  0  0
    3.1141   -1.5881   -0.0162 H   0  0  0  0  0  0  0  0  0  0  0  0
    4.8558    0.9560    0.0183 H   0  0  0  0  0  0  0  0  0  0  0  0
    6.4189   -0.8380   -0.8883 H   0  0  0  0  0  0  0  0  0  0  0  0
    5.5035   -2.0820   -0.0182 H   0  0  0  0  0  0  0  0  0  0  0  0
    6.4157   -0.8600    0.8859 H   0  0  0  0  0  0  0  0  0  0  0  0
  1  7  1  0  0  0  0
  1  9  1  0  0  0  0
  2  9  2  0  0  0  0
  3  4  1  0  0  0  0
  3  5  1  0  0  0  0
  3 13  1  0  0  0  0
  3 14  1  0  0  0  0
  4  6  1  0  0  0  0
  4 15  1  0  0  0  0
  4 16  1  0  0  0  0
  5  7  1  0  0  0  0
  5 17  1  0  0  0  0
  5 18  1  0  0  0  0
  6  8  1  0  0  0  0
  6 19  1  0  0  0  0
  6 20  1  0  0  0  0
  7 21  1  0  0  0  0
  7 22  1  0  0  0  0
  8 23  1  0  0  0  0
  8 24  1  0  0  0  0
  8 25  1  0  0  0  0
  9 10  1  0  0  0  0
 10 11  2  0  0  0  0
 10 26  1  0  0  0  0
 11 12  1  0  0  0  0
 11 27  1  0  0  0  0
 12 28  1  0  0  0  0
 12 29  1  0  0  0  0
 12 30  1  0  0  0  0
M  END
> <PUBCHEM_COMPOUND_CID>
5366038

> <PUBCHEM_CONFORMER_RMSD>
0.8

> <PUBCHEM_CONFORMER_DIVERSEORDER>
1
101
71
3
95
18
59
125
57
86
46
68
72
97
113
96
79
121
10
63
35
87
108
66
31
65
8
24
127
99
47
122
85
107
38
2
11
126
104
41
123
37
17
49
60
102
34
64
48
25
73
124
43
6
110
13
92
120
7
23
105
78
82
84
5
30
83
81
112
100
69
42
12
80
45
19
116
4
32
114
14
52
103
111
36
51
21
33
94
22
70
74
106
67
55
50
26
75
91
77
90
89
15
44
76
20
118
54
53
93
62
27
88
98
56
109
115
9
61
29
58
28
16
117
119
39
40

> <PUBCHEM_MMFF94_PARTIAL_CHARGES>
9
1 -0.43
10 -0.14
11 -0.29
12 0.14
2 -0.57
26 0.15
27 0.15
7 0.28
9 0.71

> <PUBCHEM_EFFECTIVE_ROTOR_COUNT>
7

> <PUBCHEM_PHARMACOPHORE_FEATURES>
4
1 12 hydrophobe
1 2 acceptor
1 8 hydrophobe
4 3 4 5 6 hydrophobe

> <PUBCHEM_HEAVY_ATOM_COUNT>
12

> <PUBCHEM_ATOM_DEF_STEREO_COUNT>
0

> <PUBCHEM_ATOM_UDEF_STEREO_COUNT>
0

> <PUBCHEM_BOND_DEF_STEREO_COUNT>
1

> <PUBCHEM_BOND_UDEF_STEREO_COUNT>
0

> <PUBCHEM_ISOTOPIC_ATOM_COUNT>
0

> <PUBCHEM_COMPONENT_COUNT>
1

> <PUBCHEM_CACTVS_TAUTO_COUNT>
1

> <PUBCHEM_CONFORMER_ID>
0051E11600000001

> <PUBCHEM_MMFF94_ENERGY>
5.7272

> <PUBCHEM_FEATURE_SELFOVERLAP>
20.297

> <PUBCHEM_SHAPE_FINGERPRINT>
12714333 28 10665229254327990078
13533116 47 14261079731765822214
13690532 89 18411982442852118170
14123238 8 10879992458614349171
1420 363 18041002851790702707
14251718 22 11530486631746066689
15242439 84 17821729446686013529
17834072 33 18411138068976336253
17834072 8 18113614586798846575
17834076 25 8718827587076588975
187816 3 16008468724589494753
20605781 2 9799688199390212566
20645477 70 18410293584106929918
20767249 213 9583515421502902187
21130983 4 11024103265707947450
23218964 4 18408602543971145775
23402539 116 17846492626250431093
42788 4 18410011035467081173
522135 26 18113900468216758988
57483677 66 18410852174937532019
7062679 117 10881694524511476689
8209 1 18333732412353915030

> <PUBCHEM_SHAPE_MULTIPOLES>
235.22
15.26
1.03
0.6
7.06
0.2
0
-4.45
-0.08
-0.63
-0.01
0.03
-0.01
0.04

> <PUBCHEM_SHAPE_SELFOVERLAP>
431.182

> <PUBCHEM_SHAPE_VOLUME>
149.5

> <PUBCHEM_COORDINATE_TYPE>
2
5
10

$$$$
