5366408
  -OEChem-11232109163D

 42 41  0     1  0  0  0  0  0999 V2000
    1.6344    0.7568    0.2583 O   0  0  0  0  0  0  0  0  0  0  0  0
    3.5380   -0.6357    0.1236 O   0  0  0  0  0  0  0  0  0  0  0  0
   -2.8615    1.8240    0.2229 C   0  0  0  0  0  0  0  0  0  0  0  0
   -3.5957    0.4886    0.0444 C   0  0  0  0  0  0  0  0  0  0  0  0
   -1.4286    1.8027   -0.2668 C   0  0  0  0  0  0  0  0  0  0  0  0
   -0.3479    2.0303    0.5049 C   0  0  0  0  0  0  0  0  0  0  0  0
    1.0889    2.0585    0.0908 C   0  0  0  0  0  0  0  0  0  0  0  0
   -2.9259   -0.6416    0.7758 C   0  0  0  0  0  0  0  0  0  0  0  0
   -1.2594    1.5344   -1.7404 C   0  0  0  0  0  0  0  0  0  0  0  0
    3.0128    0.6771   -0.1127 C   0  0  2  0  0  0  0  0  0  0  0  0
   -2.5146   -1.8242    0.2806 C   0  0  0  0  0  0  0  0  0  0  0  0
    3.8223    1.6359    0.7512 C   0  0  0  0  0  0  0  0  0  0  0  0
   -2.6282   -2.2524   -1.1547 C   0  0  0  0  0  0  0  0  0  0  0  0
   -1.8658   -2.8412    1.1816 C   0  0  0  0  0  0  0  0  0  0  0  0
    2.8601   -1.6310   -0.6319 C   0  0  0  0  0  0  0  0  0  0  0  0
    3.4711   -2.9823   -0.3276 C   0  0  0  0  0  0  0  0  0  0  0  0
   -3.4081    2.6082   -0.3159 H   0  0  0  0  0  0  0  0  0  0  0  0
   -2.8892    2.1102    1.2826 H   0  0  0  0  0  0  0  0  0  0  0  0
   -3.7343    0.2829   -1.0196 H   0  0  0  0  0  0  0  0  0  0  0  0
   -4.6064    0.5983    0.4577 H   0  0  0  0  0  0  0  0  0  0  0  0
   -0.5188    2.2106    1.5655 H   0  0  0  0  0  0  0  0  0  0  0  0
    1.5793    2.7783    0.7543 H   0  0  0  0  0  0  0  0  0  0  0  0
    1.2344    2.4128   -0.9337 H   0  0  0  0  0  0  0  0  0  0  0  0
   -2.7881   -0.4618    1.8418 H   0  0  0  0  0  0  0  0  0  0  0  0
   -1.8203    2.2764   -2.3190 H   0  0  0  0  0  0  0  0  0  0  0  0
   -1.6415    0.5425   -1.9980 H   0  0  0  0  0  0  0  0  0  0  0  0
   -0.2288    1.5630   -2.0977 H   0  0  0  0  0  0  0  0  0  0  0  0
    3.1350    0.9224   -1.1749 H   0  0  0  0  0  0  0  0  0  0  0  0
    3.5549    1.5328    1.8089 H   0  0  0  0  0  0  0  0  0  0  0  0
    3.6737    2.6807    0.4637 H   0  0  0  0  0  0  0  0  0  0  0  0
    4.8933    1.4217    0.6634 H   0  0  0  0  0  0  0  0  0  0  0  0
   -3.1735   -3.2001   -1.2203 H   0  0  0  0  0  0  0  0  0  0  0  0
   -3.1537   -1.5383   -1.7905 H   0  0  0  0  0  0  0  0  0  0  0  0
   -1.6302   -2.4010   -1.5807 H   0  0  0  0  0  0  0  0  0  0  0  0
   -0.8522   -3.0642    0.8320 H   0  0  0  0  0  0  0  0  0  0  0  0
   -1.7899   -2.4944    2.2176 H   0  0  0  0  0  0  0  0  0  0  0  0
   -2.4455   -3.7700    1.1842 H   0  0  0  0  0  0  0  0  0  0  0  0
    2.9572   -1.4124   -1.7011 H   0  0  0  0  0  0  0  0  0  0  0  0
    1.7971   -1.6504   -0.3680 H   0  0  0  0  0  0  0  0  0  0  0  0
    3.3909   -3.2100    0.7404 H   0  0  0  0  0  0  0  0  0  0  0  0
    4.5378   -2.9877   -0.5750 H   0  0  0  0  0  0  0  0  0  0  0  0
    2.9732   -3.7733   -0.8954 H   0  0  0  0  0  0  0  0  0  0  0  0
  1  7  1  0  0  0  0
  1 10  1  0  0  0  0
  2 10  1  0  0  0  0
  2 15  1  0  0  0  0
  3  4  1  0  0  0  0
  3  5  1  0  0  0  0
  3 17  1  0  0  0  0
  3 18  1  0  0  0  0
  4  8  1  0  0  0  0
  4 19  1  0  0  0  0
  4 20  1  0  0  0  0
  5  6  2  0  0  0  0
  5  9  1  0  0  0  0
  6  7  1  0  0  0  0
  6 21  1  0  0  0  0
  7 22  1  0  0  0  0
  7 23  1  0  0  0  0
  8 11  2  0  0  0  0
  8 24  1  0  0  0  0
  9 25  1  0  0  0  0
  9 26  1  0  0  0  0
  9 27  1  0  0  0  0
 10 12  1  0  0  0  0
 10 28  1  0  0  0  0
 11 13  1  0  0  0  0
 11 14  1  0  0  0  0
 12 29  1  0  0  0  0
 12 30  1  0  0  0  0
 12 31  1  0  0  0  0
 13 32  1  0  0  0  0
 13 33  1  0  0  0  0
 13 34  1  0  0  0  0
 14 35  1  0  0  0  0
 14 36  1  0  0  0  0
 14 37  1  0  0  0  0
 15 16  1  0  0  0  0
 15 38  1  0  0  0  0
 15 39  1  0  0  0  0
 16 40  1  0  0  0  0
 16 41  1  0  0  0  0
 16 42  1  0  0  0  0
M  END
> <PUBCHEM_COMPOUND_CID>
5366408

> <PUBCHEM_CONFORMER_RMSD>
1

> <PUBCHEM_CONFORMER_DIVERSEORDER>
1
165
69
122
167
22
116
199
82
179
113
162
118
53
169
106
9
206
4
159
205
203
115
168
5
155
93
196
166
183
123
112
188
130
77
80
127
57
140
200
120
189
91
35
45
195
125
194
163
154
193
73
197
177
147
207
89
135
171
94
142
66
68
12
201
146
126
14
101
141
28
99
117
108
109
65
161
42
182
124
60
74
202
59
19
111
151
83
152
186
157
2
204
31
119
187
7
88
102
198
107
52
62
20
39
84
10
173
96
70
128
153
97
61
11
36
25
178
139
3
138
67
181
174
40
190
44
131
81
29
192
58
15
47
184
78
121
104
114
137
85
103
98
144
50
164
75
136
46
6
55
23
33
160
32
24
158
175
150
191
87
92
79
49
129
208
105
51
86
21
71
110
27
148
41
26
95
145
143
56
134
34
8
63
156
149
170
76
72
48
16
172
38
176
18
37
64
90
30
180
133
17
43
54
100
13
185
132

> <PUBCHEM_MMFF94_PARTIAL_CHARGES>
16
1 -0.56
10 0.56
11 -0.28
13 0.14
14 0.14
15 0.28
2 -0.56
21 0.15
24 0.15
3 0.14
4 0.14
5 -0.28
6 -0.29
7 0.42
8 -0.29
9 0.14

> <PUBCHEM_EFFECTIVE_ROTOR_COUNT>
8

> <PUBCHEM_PHARMACOPHORE_FEATURES>
5
1 1 acceptor
1 2 acceptor
1 9 hydrophobe
3 11 13 14 hydrophobe
4 3 4 5 8 hydrophobe

> <PUBCHEM_HEAVY_ATOM_COUNT>
16

> <PUBCHEM_ATOM_DEF_STEREO_COUNT>
0

> <PUBCHEM_ATOM_UDEF_STEREO_COUNT>
1

> <PUBCHEM_BOND_DEF_STEREO_COUNT>
1

> <PUBCHEM_BOND_UDEF_STEREO_COUNT>
0

> <PUBCHEM_ISOTOPIC_ATOM_COUNT>
0

> <PUBCHEM_COMPONENT_COUNT>
1

> <PUBCHEM_CACTVS_TAUTO_COUNT>
1

> <PUBCHEM_CONFORMER_ID>
0051E28800000001

> <PUBCHEM_MMFF94_ENERGY>
21.4576

> <PUBCHEM_FEATURE_SELFOVERLAP>
25.429

> <PUBCHEM_SHAPE_FINGERPRINT>
10616163 171 18339929319590263374
11322862 65 18335138631696145421
117890 22 18413114952434093574
12553582 1 18192440889938362273
12633257 1 18129113216266749283
14251705 54 18338523057129840866
14251745 187 18337948012395390762
14251757 5 18048906029676607878
14617045 38 18339094747156976238
14916288 52 18411707564655524062
17834074 16 18411140220987124896
17859628 97 17975137539520445963
19930381 70 17623855626251373471
20442098 301 18342174496490616028
20693207 138 18338242544589762884
23559900 14 18411694383875776488
57210444 14 17538834794195439741
6438754 60 17483646247270051463
8809292 202 18338240336654786390
9709674 26 18411419509809553730

> <PUBCHEM_SHAPE_MULTIPOLES>
317.53
7.47
3.83
1.12
4.69
2.19
0.29
2.34
-0.47
0.22
-0.05
-0.52
0.13
1.01

> <PUBCHEM_SHAPE_SELFOVERLAP>
590.259

> <PUBCHEM_SHAPE_VOLUME>
200.2

> <PUBCHEM_COORDINATE_TYPE>
2
5
10

$$$$
