5367677
  -OEChem-11232108553D

 39 38  0     0  0  0  0  0  0999 V2000
   -1.2888   -0.7563    0.1772 O   0  0  0  0  0  0  0  0  0  0  0  0
    0.2870   -2.4404    0.1430 O   0  0  0  0  0  0  0  0  0  0  0  0
    3.3976    0.6254    0.0377 C   0  0  0  0  0  0  0  0  0  0  0  0
    4.8475    0.1430   -0.0406 C   0  0  0  0  0  0  0  0  0  0  0  0
    2.4199   -0.5538    0.0433 C   0  0  0  0  0  0  0  0  0  0  0  0
    5.8259    1.3172   -0.0175 C   0  0  0  0  0  0  0  0  0  0  0  0
    0.9629   -0.1035    0.1493 C   0  0  0  0  0  0  0  0  0  0  0  0
    7.2666    0.8440   -0.1282 C   0  0  0  0  0  0  0  0  0  0  0  0
   -0.0172   -1.2558    0.1650 C   0  0  0  0  0  0  0  0  0  0  0  0
   -2.3350   -1.7329    0.1625 C   0  0  0  0  0  0  0  0  0  0  0  0
   -3.6889   -1.0334    0.1786 C   0  0  0  0  0  0  0  0  0  0  0  0
   -3.8804   -0.1652   -1.0330 C   0  0  0  0  0  0  0  0  0  0  0  0
   -4.0839    1.1594   -0.9774 C   0  0  0  0  0  0  0  0  0  0  0  0
   -4.1462    1.9407    0.3014 C   0  0  0  0  0  0  0  0  0  0  0  0
   -5.5671    2.0116    0.8386 C   0  0  0  0  0  0  0  0  0  0  0  0
    3.1786    1.2796   -0.8146 H   0  0  0  0  0  0  0  0  0  0  0  0
    3.2568    1.2205    0.9481 H   0  0  0  0  0  0  0  0  0  0  0  0
    4.9907   -0.4381   -0.9597 H   0  0  0  0  0  0  0  0  0  0  0  0
    5.0597   -0.5268    0.8016 H   0  0  0  0  0  0  0  0  0  0  0  0
    2.5532   -1.1457   -0.8710 H   0  0  0  0  0  0  0  0  0  0  0  0
    2.6552   -1.2205    0.8826 H   0  0  0  0  0  0  0  0  0  0  0  0
    5.7033    1.8859    0.9116 H   0  0  0  0  0  0  0  0  0  0  0  0
    5.6081    1.9999   -0.8470 H   0  0  0  0  0  0  0  0  0  0  0  0
    0.8222    0.4704    1.0722 H   0  0  0  0  0  0  0  0  0  0  0  0
    0.7195    0.5373   -0.7060 H   0  0  0  0  0  0  0  0  0  0  0  0
    7.9491    1.6995   -0.1086 H   0  0  0  0  0  0  0  0  0  0  0  0
    7.5272    0.1824    0.7042 H   0  0  0  0  0  0  0  0  0  0  0  0
    7.4302    0.3002   -1.0640 H   0  0  0  0  0  0  0  0  0  0  0  0
   -2.2381   -2.3560   -0.7352 H   0  0  0  0  0  0  0  0  0  0  0  0
   -2.2454   -2.3722    1.0487 H   0  0  0  0  0  0  0  0  0  0  0  0
   -3.7936   -0.4874    1.1190 H   0  0  0  0  0  0  0  0  0  0  0  0
   -4.4790   -1.7940    0.1779 H   0  0  0  0  0  0  0  0  0  0  0  0
   -3.8647   -0.6511   -2.0051 H   0  0  0  0  0  0  0  0  0  0  0  0
   -4.2325    1.7055   -1.9052 H   0  0  0  0  0  0  0  0  0  0  0  0
   -3.7961    2.9589    0.0900 H   0  0  0  0  0  0  0  0  0  0  0  0
   -3.4614    1.5579    1.0642 H   0  0  0  0  0  0  0  0  0  0  0  0
   -6.2478    2.4556    0.1042 H   0  0  0  0  0  0  0  0  0  0  0  0
   -5.5976    2.6298    1.7417 H   0  0  0  0  0  0  0  0  0  0  0  0
   -5.9469    1.0179    1.0982 H   0  0  0  0  0  0  0  0  0  0  0  0
  1  9  1  0  0  0  0
  1 10  1  0  0  0  0
  2  9  2  0  0  0  0
  3  4  1  0  0  0  0
  3  5  1  0  0  0  0
  3 16  1  0  0  0  0
  3 17  1  0  0  0  0
  4  6  1  0  0  0  0
  4 18  1  0  0  0  0
  4 19  1  0  0  0  0
  5  7  1  0  0  0  0
  5 20  1  0  0  0  0
  5 21  1  0  0  0  0
  6  8  1  0  0  0  0
  6 22  1  0  0  0  0
  6 23  1  0  0  0  0
  7  9  1  0  0  0  0
  7 24  1  0  0  0  0
  7 25  1  0  0  0  0
  8 26  1  0  0  0  0
  8 27  1  0  0  0  0
  8 28  1  0  0  0  0
 10 11  1  0  0  0  0
 10 29  1  0  0  0  0
 10 30  1  0  0  0  0
 11 12  1  0  0  0  0
 11 31  1  0  0  0  0
 11 32  1  0  0  0  0
 12 13  2  0  0  0  0
 12 33  1  0  0  0  0
 13 14  1  0  0  0  0
 13 34  1  0  0  0  0
 14 15  1  0  0  0  0
 14 35  1  0  0  0  0
 14 36  1  0  0  0  0
 15 37  1  0  0  0  0
 15 38  1  0  0  0  0
 15 39  1  0  0  0  0
M  END
> <PUBCHEM_COMPOUND_CID>
5367677

> <PUBCHEM_CONFORMER_RMSD>
1.2

> <PUBCHEM_CONFORMER_DIVERSEORDER>
1
39
30
4
31
44
25
41
24
15
20
2
48
19
42
35
34
49
21
47
3
5
53
46
38
36
32
50
29
14
23
18
12
11
52
16
13
17
40
45
22
27
10
51
43
54
26
7
8
28
37
33
6
9

> <PUBCHEM_MMFF94_PARTIAL_CHARGES>
11
1 -0.43
10 0.28
11 0.14
12 -0.29
13 -0.29
14 0.14
2 -0.57
33 0.15
34 0.15
7 0.06
9 0.66

> <PUBCHEM_EFFECTIVE_ROTOR_COUNT>
10

> <PUBCHEM_PHARMACOPHORE_FEATURES>
4
1 15 hydrophobe
1 2 acceptor
1 8 hydrophobe
5 3 4 5 6 7 hydrophobe

> <PUBCHEM_HEAVY_ATOM_COUNT>
15

> <PUBCHEM_ATOM_DEF_STEREO_COUNT>
0

> <PUBCHEM_ATOM_UDEF_STEREO_COUNT>
0

> <PUBCHEM_BOND_DEF_STEREO_COUNT>
1

> <PUBCHEM_BOND_UDEF_STEREO_COUNT>
0

> <PUBCHEM_ISOTOPIC_ATOM_COUNT>
0

> <PUBCHEM_COMPONENT_COUNT>
1

> <PUBCHEM_CACTVS_TAUTO_COUNT>
1

> <PUBCHEM_CONFORMER_ID>
0051E77D00000001

> <PUBCHEM_MMFF94_ENERGY>
2.6891

> <PUBCHEM_FEATURE_SELFOVERLAP>
20.297

> <PUBCHEM_SHAPE_FINGERPRINT>
100836 57 18407762521113590260
10803635 8 16343698837455863021
11046707 91 9223226356376085975
117890 112 18411981373700770988
12091667 2 18337390547616541194
12670543 26 18131637768700974326
13740256 8 9151172060741308990
14123255 352 18333445439317886277
14251752 14 18412260641185493954
14251764 18 18186798093101043810
14729087 3 18411694422852046976
15188451 53 13118294693707027561
15415430 10 8862937282226837969
15501527 16 18408887321677642633
15716309 27 8214142958477659092
15778101 99 18411704279089399523
15880784 105 11025805288047883172
16079462 125 17916858145313850976
17780758 139 11891327634788562215
20281389 69 17968090906720841516
20621476 66 18411423877744379721
20621476 91 8718544970160953852
20645477 56 18410575085280413331
20765182 5 18410577253691220173
21054139 6 11743842461049315188
21426921 1 18267865158790712511
23402539 116 18342171206993937110
23402655 69 18273492369032932262
270888 7 18268148661313714281
293599 30 18409166615011245090
328310 18 16702031842017981641
441001 317 18411417332113526080
49783359 22 8718829790574296356
5104073 3 18113337479260940979
59345605 10 8935001468955175676
59682541 35 18261406551044415337
7062679 6 18334580148493134652

> <PUBCHEM_SHAPE_MULTIPOLES>
296.95
16.46
2.17
0.81
20.88
0.16
0.1
-11.82
0.31
-2.55
-0.34
-0.85
-0.17
-0.5

> <PUBCHEM_SHAPE_SELFOVERLAP>
546.189

> <PUBCHEM_SHAPE_VOLUME>
187.7

> <PUBCHEM_COORDINATE_TYPE>
2
5
10

$$$$
