5367698
  -OEChem-11232109193D

 34 34  0     0  0  0  0  0  0999 V2000
   -1.1175   -0.4959    0.1934 O   0  0  0  0  0  0  0  0  0  0  0  0
    0.7905   -1.7913    0.2345 O   0  0  0  0  0  0  0  0  0  0  0  0
   -3.3942   -1.2751    0.2951 C   0  0  0  0  0  0  0  0  0  0  0  0
   -1.9209   -1.6652    0.2873 C   0  0  0  0  0  0  0  0  0  0  0  0
    0.9395    0.6321    0.0756 C   0  0  0  0  0  0  0  0  0  0  0  0
    2.4396    0.5040    0.0128 C   0  0  0  0  0  0  0  0  0  0  0  0
   -3.7892   -0.5702   -0.9720 C   0  0  0  0  0  0  0  0  0  0  0  0
    0.2377   -0.7013    0.1763 C   0  0  0  0  0  0  0  0  0  0  0  0
   -4.4855    1.5305    0.2064 C   0  0  0  0  0  0  0  0  0  0  0  0
   -4.2752    0.6794   -1.0107 C   0  0  0  0  0  0  0  0  0  0  0  0
    3.1744    0.5081    1.1894 C   0  0  0  0  0  0  0  0  0  0  0  0
    3.0631    0.3842   -1.2208 C   0  0  0  0  0  0  0  0  0  0  0  0
    4.5631    0.3898    1.1312 C   0  0  0  0  0  0  0  0  0  0  0  0
    4.4517    0.2656   -1.2790 C   0  0  0  0  0  0  0  0  0  0  0  0
   -5.8791    1.3370    0.7836 C   0  0  0  0  0  0  0  0  0  0  0  0
    5.2018    0.2684   -0.1030 C   0  0  0  0  0  0  0  0  0  0  0  0
   -3.9998   -2.1858    0.3783 H   0  0  0  0  0  0  0  0  0  0  0  0
   -3.6006   -0.6899    1.1941 H   0  0  0  0  0  0  0  0  0  0  0  0
   -1.6829   -2.1979    1.2156 H   0  0  0  0  0  0  0  0  0  0  0  0
   -1.7076   -2.3261   -0.5619 H   0  0  0  0  0  0  0  0  0  0  0  0
    0.6571    1.2405    0.9432 H   0  0  0  0  0  0  0  0  0  0  0  0
    0.5776    1.1502   -0.8209 H   0  0  0  0  0  0  0  0  0  0  0  0
   -3.6837   -1.1188   -1.9044 H   0  0  0  0  0  0  0  0  0  0  0  0
   -3.7218    1.3675    0.9729 H   0  0  0  0  0  0  0  0  0  0  0  0
   -4.3686    2.5795   -0.0933 H   0  0  0  0  0  0  0  0  0  0  0  0
   -4.5537    1.1032   -1.9718 H   0  0  0  0  0  0  0  0  0  0  0  0
    2.6865    0.5999    2.1557 H   0  0  0  0  0  0  0  0  0  0  0  0
    2.4878    0.3789   -2.1423 H   0  0  0  0  0  0  0  0  0  0  0  0
    5.1471    0.3914    2.0469 H   0  0  0  0  0  0  0  0  0  0  0  0
    4.9490    0.1705   -2.2399 H   0  0  0  0  0  0  0  0  0  0  0  0
   -6.0289    2.0054    1.6376 H   0  0  0  0  0  0  0  0  0  0  0  0
   -6.0296    0.3093    1.1305 H   0  0  0  0  0  0  0  0  0  0  0  0
   -6.6516    1.5626    0.0406 H   0  0  0  0  0  0  0  0  0  0  0  0
    6.2829    0.1758   -0.1482 H   0  0  0  0  0  0  0  0  0  0  0  0
  1  4  1  0  0  0  0
  1  8  1  0  0  0  0
  2  8  2  0  0  0  0
  3  4  1  0  0  0  0
  3  7  1  0  0  0  0
  3 17  1  0  0  0  0
  3 18  1  0  0  0  0
  4 19  1  0  0  0  0
  4 20  1  0  0  0  0
  5  6  1  0  0  0  0
  5  8  1  0  0  0  0
  5 21  1  0  0  0  0
  5 22  1  0  0  0  0
  6 11  2  0  0  0  0
  6 12  1  0  0  0  0
  7 10  2  0  0  0  0
  7 23  1  0  0  0  0
  9 10  1  0  0  0  0
  9 15  1  0  0  0  0
  9 24  1  0  0  0  0
  9 25  1  0  0  0  0
 10 26  1  0  0  0  0
 11 13  1  0  0  0  0
 11 27  1  0  0  0  0
 12 14  2  0  0  0  0
 12 28  1  0  0  0  0
 13 16  2  0  0  0  0
 13 29  1  0  0  0  0
 14 16  1  0  0  0  0
 14 30  1  0  0  0  0
 15 31  1  0  0  0  0
 15 32  1  0  0  0  0
 15 33  1  0  0  0  0
 16 34  1  0  0  0  0
M  END
> <PUBCHEM_COMPOUND_CID>
5367698

> <PUBCHEM_CONFORMER_RMSD>
0.8

> <PUBCHEM_CONFORMER_DIVERSEORDER>
1
177
97
332
26
321
319
290
173
200
56
47
335
7
357
175
264
292
186
4
134
202
339
318
104
320
49
218
136
122
231
351
249
39
86
112
111
108
208
155
228
78
77
27
36
353
24
48
341
12
185
197
301
174
71
83
52
180
298
242
14
275
165
172
263
130
75
45
356
89
5
268
11
128
297
167
58
42
150
350
40
303
236
255
199
44
147
338
322
8
325
168
22
109
253
278
61
282
129
189
204
289
92
69
306
281
121
70
182
327
9
210
302
142
333
195
260
103
140
6
99
250
102
280
105
310
287
262
245
13
98
241
358
285
326
304
41
100
146
85
67
276
187
334
359
266
116
63
151
32
101
347
163
315
184
191
294
271
117
170
312
55
68
157
308
37
25
88
33
143
324
159
217
305
158
21
3
123
164
225
80
309
79
29
115
314
238
215
232
84
18
76
73
317
57
340
331
93
90
206
10
261
211
54
346
119
252
30
348
198
192
72
329
265
149
23
53
311
154
296
60
209
283
62
64
286
141
183
342
81
118
323
95
274
161
272
138
349
20
244
137
179
343
190
299
59
316
144
153
87
201
148
222
229
230
46
188
235
243
203
50
51
132
38
152
96
196
66
2
193
35
162
273
213
113
216
246
28
19
31
135
330
176
16
224
194
17
251
354
307
226
337
126
259
344
43
107
328
160
139
240
207
352
120
239
169
110
269
221
288
34
256
247
345
114
279
284
254
94
237
233
15
267
336
127
74
156
234
223
106
131
248
295
181
65
220
82
258
313
125
212
300
219
124
133
91
277
171
270
214
145
166
355
178
205
257
291
227
293

> <PUBCHEM_MMFF94_PARTIAL_CHARGES>
22
1 -0.43
10 -0.29
11 -0.15
12 -0.15
13 -0.15
14 -0.15
16 -0.15
2 -0.57
23 0.15
26 0.15
27 0.15
28 0.15
29 0.15
3 0.14
30 0.15
34 0.15
4 0.28
5 0.2
6 -0.14
7 -0.29
8 0.66
9 0.14

> <PUBCHEM_EFFECTIVE_ROTOR_COUNT>
7

> <PUBCHEM_PHARMACOPHORE_FEATURES>
3
1 15 hydrophobe
1 2 acceptor
6 6 11 12 13 14 16 rings

> <PUBCHEM_HEAVY_ATOM_COUNT>
16

> <PUBCHEM_ATOM_DEF_STEREO_COUNT>
0

> <PUBCHEM_ATOM_UDEF_STEREO_COUNT>
0

> <PUBCHEM_BOND_DEF_STEREO_COUNT>
1

> <PUBCHEM_BOND_UDEF_STEREO_COUNT>
0

> <PUBCHEM_ISOTOPIC_ATOM_COUNT>
0

> <PUBCHEM_COMPONENT_COUNT>
1

> <PUBCHEM_CACTVS_TAUTO_COUNT>
1

> <PUBCHEM_CONFORMER_ID>
0051E79200000001

> <PUBCHEM_MMFF94_ENERGY>
22.4067

> <PUBCHEM_FEATURE_SELFOVERLAP>
15.223

> <PUBCHEM_SHAPE_FINGERPRINT>
100836 57 18261116261845084253
10354089 29 16515407369616775932
10447042 23 13183020700802219132
10753850 27 9006758875688435873
10803635 8 14620509009276074757
10912923 1 17313099804114484042
11370993 144 14346340252655389661
11552529 35 16009609008484172481
11796584 16 18413112767055999318
12236239 1 17676202503308374744
12596602 18 15791453721138420289
13911882 115 12252184026382926440
14251764 18 17821728372791254034
14251764 30 12396570807047644624
14251764 38 18128808827819454153
14341114 176 15285362807922957125
14573314 32 18202567276134608244
1601671 61 18260265248461585116
17834072 8 17917717889595677428
18186145 218 17917154999655987666
200 152 14549023182141955699
20281389 69 18113332007704635757
20621476 66 18408890620265760685
20645477 56 18411702084846518291
20645477 70 16415491466851478942
23198884 109 16343705405457981153
23402539 116 17847056692383639788
23402655 69 18131913753923575078
23557571 272 18271257109439192351
23559900 14 16917069992814768002
32948 21 18343587326241026812
3545911 37 18412829071290331627
4325135 7 9583226250213926842
49783359 22 9151180839306419444
5104073 3 17531806982290218416
5283173 99 16916790630608754289
5385378 56 18338522911396573155
542803 24 17894349994645301788
59682541 52 17059489605058970557
633830 44 18341888636347015276
6430166 295 18261106391662130399
8272917 22 17095232593426474474
90127 26 18339928232884481472

> <PUBCHEM_SHAPE_MULTIPOLES>
317.53
13.43
1.49
1.17
4.92
0.33
-0.15
-5.44
-0.09
1.96
0.24
-0.66
-0.16
-0.17

> <PUBCHEM_SHAPE_SELFOVERLAP>
635.917

> <PUBCHEM_SHAPE_VOLUME>
186.4

> <PUBCHEM_COORDINATE_TYPE>
2
5
10

$$$$
