5367475
  -OEChem-11232109433D

 20 19  0     0  0  0  0  0  0999 V2000
   -2.6002    0.3375   -0.6121 C   0  0  0  0  0  0  0  0  0  0  0  0
   -2.0639   -0.9195    0.0081 C   0  0  0  0  0  0  0  0  0  0  0  0
   -2.9297    1.3803    0.4445 C   0  0  0  0  0  0  0  0  0  0  0  0
   -0.7604   -1.1366    0.2388 C   0  0  0  0  0  0  0  0  0  0  0  0
    0.2709   -0.1771   -0.0875 C   0  0  0  0  0  0  0  0  0  0  0  0
    1.5740   -0.3971    0.1445 C   0  0  0  0  0  0  0  0  0  0  0  0
    2.6042    0.5621   -0.1822 C   0  0  0  0  0  0  0  0  0  0  0  0
    3.9052    0.3504    0.0460 C   0  0  0  0  0  0  0  0  0  0  0  0
   -1.9371    0.7553   -1.3758 H   0  0  0  0  0  0  0  0  0  0  0  0
   -3.5210    0.0773   -1.1496 H   0  0  0  0  0  0  0  0  0  0  0  0
   -2.7823   -1.6825    0.2963 H   0  0  0  0  0  0  0  0  0  0  0  0
   -3.3748    2.2636   -0.0248 H   0  0  0  0  0  0  0  0  0  0  0  0
   -3.6464    0.9918    1.1761 H   0  0  0  0  0  0  0  0  0  0  0  0
   -2.0331    1.7027    0.9839 H   0  0  0  0  0  0  0  0  0  0  0  0
   -0.4583   -2.0741    0.6977 H   0  0  0  0  0  0  0  0  0  0  0  0
   -0.0140    0.7726   -0.5287 H   0  0  0  0  0  0  0  0  0  0  0  0
    1.8956   -1.3344    0.5933 H   0  0  0  0  0  0  0  0  0  0  0  0
    2.3001    1.5016   -0.6358 H   0  0  0  0  0  0  0  0  0  0  0  0
    4.6366    1.1065   -0.2195 H   0  0  0  0  0  0  0  0  0  0  0  0
    4.2689   -0.5673    0.4961 H   0  0  0  0  0  0  0  0  0  0  0  0
  1  2  1  0  0  0  0
  1  3  1  0  0  0  0
  1  9  1  0  0  0  0
  1 10  1  0  0  0  0
  2  4  2  0  0  0  0
  2 11  1  0  0  0  0
  3 12  1  0  0  0  0
  3 13  1  0  0  0  0
  3 14  1  0  0  0  0
  4  5  1  0  0  0  0
  4 15  1  0  0  0  0
  5  6  2  0  0  0  0
  5 16  1  0  0  0  0
  6  7  1  0  0  0  0
  6 17  1  0  0  0  0
  7  8  2  0  0  0  0
  7 18  1  0  0  0  0
  8 19  1  0  0  0  0
  8 20  1  0  0  0  0
M  END
> <PUBCHEM_COMPOUND_CID>
5367475

> <PUBCHEM_CONFORMER_RMSD>
0.6

> <PUBCHEM_CONFORMER_DIVERSEORDER>
1
4
7
6
2
5
3

> <PUBCHEM_MMFF94_PARTIAL_CHARGES>
14
1 0.14
11 0.15
15 0.15
16 0.15
17 0.15
18 0.15
19 0.15
2 -0.29
20 0.15
4 -0.15
5 -0.15
6 -0.15
7 -0.15
8 -0.3

> <PUBCHEM_EFFECTIVE_ROTOR_COUNT>
3

> <PUBCHEM_PHARMACOPHORE_FEATURES>
2
1 3 hydrophobe
1 8 hydrophobe

> <PUBCHEM_HEAVY_ATOM_COUNT>
8

> <PUBCHEM_ATOM_DEF_STEREO_COUNT>
0

> <PUBCHEM_ATOM_UDEF_STEREO_COUNT>
0

> <PUBCHEM_BOND_DEF_STEREO_COUNT>
2

> <PUBCHEM_BOND_UDEF_STEREO_COUNT>
0

> <PUBCHEM_ISOTOPIC_ATOM_COUNT>
0

> <PUBCHEM_COMPONENT_COUNT>
1

> <PUBCHEM_CACTVS_TAUTO_COUNT>
1

> <PUBCHEM_CONFORMER_ID>
0051E6B300000001

> <PUBCHEM_MMFF94_ENERGY>
6.0277

> <PUBCHEM_FEATURE_SELFOVERLAP>
10.149

> <PUBCHEM_SHAPE_FINGERPRINT>
10149128 111 18410299085891347245
10857977 72 10953740040378369758
11062470 55 17346599685924573032
12932764 1 17346592001927763882
14128692 85 10159689213945459523
14325111 11 18409448098440915670
14390081 3 18413386548801342081
15775835 57 18335421223195729785
20211469 26 12107792934240013313
20653085 51 18200324208100211915
21293036 1 16200428091474079471
22485316 2 9223235126409193060
23402539 116 18270952540349335271
3248919 1 18040432239341474430
42627469 27 18334860489276342408

> <PUBCHEM_SHAPE_MULTIPOLES>
164.64
6.21
1.21
0.7
3.65
0.07
-0.02
2.21
-0.04
-0.88
0.13
-0.18
0.04
-0.17

> <PUBCHEM_SHAPE_SELFOVERLAP>
301.057

> <PUBCHEM_SHAPE_VOLUME>
104.6

> <PUBCHEM_COORDINATE_TYPE>
2
5
10

$$$$
