5367536
  -OEChem-11232109143D

 22 21  0     0  0  0  0  0  0999 V2000
   -3.6511   -0.6182    0.3463 O   0  0  0  0  0  0  0  0  0  0  0  0
   -0.2433    0.6936   -0.5389 C   0  0  0  0  0  0  0  0  0  0  0  0
   -1.4297    0.2771    0.3284 C   0  0  0  0  0  0  0  0  0  0  0  0
    0.8671    1.2635    0.2949 C   0  0  0  0  0  0  0  0  0  0  0  0
   -2.5770   -0.2637   -0.5139 C   0  0  0  0  0  0  0  0  0  0  0  0
    2.1144    0.7709    0.3133 C   0  0  0  0  0  0  0  0  0  0  0  0
    2.5563   -0.4113   -0.4973 C   0  0  0  0  0  0  0  0  0  0  0  0
    2.3633   -1.7119    0.2672 C   0  0  0  0  0  0  0  0  0  0  0  0
    0.0593   -0.1632   -1.1452 H   0  0  0  0  0  0  0  0  0  0  0  0
   -0.5657    1.4705   -1.2434 H   0  0  0  0  0  0  0  0  0  0  0  0
   -1.1196   -0.4856    1.0546 H   0  0  0  0  0  0  0  0  0  0  0  0
   -1.7886    1.1264    0.9245 H   0  0  0  0  0  0  0  0  0  0  0  0
    0.6388    2.1281    0.9128 H   0  0  0  0  0  0  0  0  0  0  0  0
   -2.9395    0.4930   -1.2163 H   0  0  0  0  0  0  0  0  0  0  0  0
   -2.2769   -1.1498   -1.0822 H   0  0  0  0  0  0  0  0  0  0  0  0
    3.6241   -0.2860   -0.7173 H   0  0  0  0  0  0  0  0  0  0  0  0
    2.0699   -0.4606   -1.4759 H   0  0  0  0  0  0  0  0  0  0  0  0
    2.8532    1.2403    0.9575 H   0  0  0  0  0  0  0  0  0  0  0  0
    2.7449   -2.5536   -0.3196 H   0  0  0  0  0  0  0  0  0  0  0  0
    2.9012   -1.6956    1.2213 H   0  0  0  0  0  0  0  0  0  0  0  0
    1.3048   -1.8997    0.4755 H   0  0  0  0  0  0  0  0  0  0  0  0
   -3.3295   -1.3116    0.9473 H   0  0  0  0  0  0  0  0  0  0  0  0
  1  5  1  0  0  0  0
  1 22  1  0  0  0  0
  2  3  1  0  0  0  0
  2  4  1  0  0  0  0
  2  9  1  0  0  0  0
  2 10  1  0  0  0  0
  3  5  1  0  0  0  0
  3 11  1  0  0  0  0
  3 12  1  0  0  0  0
  4  6  2  0  0  0  0
  4 13  1  0  0  0  0
  5 14  1  0  0  0  0
  5 15  1  0  0  0  0
  6  7  1  0  0  0  0
  6 18  1  0  0  0  0
  7  8  1  0  0  0  0
  7 16  1  0  0  0  0
  7 17  1  0  0  0  0
  8 19  1  0  0  0  0
  8 20  1  0  0  0  0
  8 21  1  0  0  0  0
M  END
> <PUBCHEM_COMPOUND_CID>
5367536

> <PUBCHEM_CONFORMER_RMSD>
0.6

> <PUBCHEM_CONFORMER_DIVERSEORDER>
1
31
38
25
3
37
11
39
35
32
30
33
18
34
16
17
36
24
15
21
26
2
27
6
8
14
10
28
13
29
23
22
12
4
20
9
5
7
19

> <PUBCHEM_MMFF94_PARTIAL_CHARGES>
9
1 -0.68
13 0.15
18 0.15
2 0.14
22 0.4
4 -0.29
5 0.28
6 -0.29
7 0.14

> <PUBCHEM_EFFECTIVE_ROTOR_COUNT>
4

> <PUBCHEM_PHARMACOPHORE_FEATURES>
3
1 1 acceptor
1 1 donor
1 8 hydrophobe

> <PUBCHEM_HEAVY_ATOM_COUNT>
8

> <PUBCHEM_ATOM_DEF_STEREO_COUNT>
0

> <PUBCHEM_ATOM_UDEF_STEREO_COUNT>
0

> <PUBCHEM_BOND_DEF_STEREO_COUNT>
1

> <PUBCHEM_BOND_UDEF_STEREO_COUNT>
0

> <PUBCHEM_ISOTOPIC_ATOM_COUNT>
0

> <PUBCHEM_COMPONENT_COUNT>
1

> <PUBCHEM_CACTVS_TAUTO_COUNT>
1

> <PUBCHEM_CONFORMER_ID>
0051E6F000000001

> <PUBCHEM_MMFF94_ENERGY>
1.6222

> <PUBCHEM_FEATURE_SELFOVERLAP>
15.223

> <PUBCHEM_SHAPE_FINGERPRINT>
10149128 111 8934709024484616350
10857977 72 14261349206434997989
12897270 3 13840270281611271532
12932764 1 17917706941824500541
14390081 3 9655581811733929759
20201158 50 18333450941245144282
20645477 70 18341606014883276431
20711985 344 17315345934545231236
20871998 22 18059019350454893942
21293036 1 16225771838889575277
23552333 60 18060702809972854904
23552423 10 18261396602797610380
23552449 11 18202278113082132400
29004967 10 18410289220594107040

> <PUBCHEM_SHAPE_MULTIPOLES>
158.77
5.21
1.41
0.77
3.51
0.27
-0.04
2.13
0.16
-0.97
0.16
0
-0.01
0.06

> <PUBCHEM_SHAPE_SELFOVERLAP>
281.152

> <PUBCHEM_SHAPE_VOLUME>
103.7

> <PUBCHEM_COORDINATE_TYPE>
2
5
10

$$$$
