5367706
  -OEChem-11232109193D

 31 31  0     0  0  0  0  0  0999 V2000
   -0.3689   -0.9760    0.1017 O   0  0  0  0  0  0  0  0  0  0  0  0
    1.2532   -2.6021   -0.0517 O   0  0  0  0  0  0  0  0  0  0  0  0
   -2.7518   -1.3031    0.2276 C   0  0  0  0  0  0  0  0  0  0  0  0
   -1.3853   -1.9700    0.1241 C   0  0  0  0  0  0  0  0  0  0  0  0
   -3.0287   -0.4170   -0.9541 C   0  0  0  0  0  0  0  0  0  0  0  0
   -3.2686    1.6566    0.4348 C   0  0  0  0  0  0  0  0  0  0  0  0
   -3.2588    0.9011   -0.8610 C   0  0  0  0  0  0  0  0  0  0  0  0
    1.8725   -0.3002   -0.0017 C   0  0  0  0  0  0  0  0  0  0  0  0
    0.9110   -1.4315    0.0110 C   0  0  0  0  0  0  0  0  0  0  0  0
   -4.6593    1.6838    1.0497 C   0  0  0  0  0  0  0  0  0  0  0  0
    3.1335   -0.4909    0.5251 C   0  0  0  0  0  0  0  0  0  0  0  0
    1.4754    0.9066   -0.5403 C   0  0  0  0  0  0  0  0  0  0  0  0
    4.0369    0.5718    0.5130 C   0  0  0  0  0  0  0  0  0  0  0  0
    2.3790    1.9691   -0.5525 C   0  0  0  0  0  0  0  0  0  0  0  0
    3.6598    1.8017   -0.0258 C   0  0  0  0  0  0  0  0  0  0  0  0
   -3.5234   -2.0821    0.2544 H   0  0  0  0  0  0  0  0  0  0  0  0
   -2.8175   -0.7776    1.1831 H   0  0  0  0  0  0  0  0  0  0  0  0
   -1.2358   -2.6252    0.9905 H   0  0  0  0  0  0  0  0  0  0  0  0
   -1.3264   -2.5757   -0.7888 H   0  0  0  0  0  0  0  0  0  0  0  0
   -3.0550   -0.8839   -1.9352 H   0  0  0  0  0  0  0  0  0  0  0  0
   -2.5345    1.2756    1.1513 H   0  0  0  0  0  0  0  0  0  0  0  0
   -2.9534    2.6865    0.2252 H   0  0  0  0  0  0  0  0  0  0  0  0
   -3.4698    1.4611   -1.7683 H   0  0  0  0  0  0  0  0  0  0  0  0
   -4.6542    2.2840    1.9653 H   0  0  0  0  0  0  0  0  0  0  0  0
   -5.0019    0.6767    1.3095 H   0  0  0  0  0  0  0  0  0  0  0  0
   -5.3889    2.1254    0.3623 H   0  0  0  0  0  0  0  0  0  0  0  0
    3.4377   -1.4427    0.9503 H   0  0  0  0  0  0  0  0  0  0  0  0
    0.4891    1.0589   -0.9682 H   0  0  0  0  0  0  0  0  0  0  0  0
    5.0340    0.4417    0.9237 H   0  0  0  0  0  0  0  0  0  0  0  0
    2.0866    2.9262   -0.9747 H   0  0  0  0  0  0  0  0  0  0  0  0
    4.3635    2.6289   -0.0358 H   0  0  0  0  0  0  0  0  0  0  0  0
  1  4  1  0  0  0  0
  1  9  1  0  0  0  0
  2  9  2  0  0  0  0
  3  4  1  0  0  0  0
  3  5  1  0  0  0  0
  3 16  1  0  0  0  0
  3 17  1  0  0  0  0
  4 18  1  0  0  0  0
  4 19  1  0  0  0  0
  5  7  2  0  0  0  0
  5 20  1  0  0  0  0
  6  7  1  0  0  0  0
  6 10  1  0  0  0  0
  6 21  1  0  0  0  0
  6 22  1  0  0  0  0
  7 23  1  0  0  0  0
  8  9  1  0  0  0  0
  8 11  2  0  0  0  0
  8 12  1  0  0  0  0
 10 24  1  0  0  0  0
 10 25  1  0  0  0  0
 10 26  1  0  0  0  0
 11 13  1  0  0  0  0
 11 27  1  0  0  0  0
 12 14  2  0  0  0  0
 12 28  1  0  0  0  0
 13 15  2  0  0  0  0
 13 29  1  0  0  0  0
 14 15  1  0  0  0  0
 14 30  1  0  0  0  0
 15 31  1  0  0  0  0
M  END
> <PUBCHEM_COMPOUND_CID>
5367706

> <PUBCHEM_CONFORMER_RMSD>
0.8

> <PUBCHEM_CONFORMER_DIVERSEORDER>
1
16
85
28
26
5
40
66
18
3
74
67
81
84
73
14
64
31
69
63
35
4
53
11
79
34
43
42
77
83
6
36
38
13
54
30
44
50
23
82
39
58
15
37
48
72
51
52
62
46
68
76
10
12
25
21
41
75
78
27
70
29
65
33
47
71
7
60
56
32
80
57
24
45
9
22
55
59
17
19
49
61
2
8
20

> <PUBCHEM_MMFF94_PARTIAL_CHARGES>
21
1 -0.43
11 -0.15
12 -0.15
13 -0.15
14 -0.15
15 -0.15
2 -0.57
20 0.15
23 0.15
27 0.15
28 0.15
29 0.15
3 0.14
30 0.15
31 0.15
4 0.28
5 -0.29
6 0.14
7 -0.29
8 0.09
9 0.63

> <PUBCHEM_EFFECTIVE_ROTOR_COUNT>
6

> <PUBCHEM_PHARMACOPHORE_FEATURES>
3
1 10 hydrophobe
1 2 acceptor
6 8 11 12 13 14 15 rings

> <PUBCHEM_HEAVY_ATOM_COUNT>
15

> <PUBCHEM_ATOM_DEF_STEREO_COUNT>
0

> <PUBCHEM_ATOM_UDEF_STEREO_COUNT>
0

> <PUBCHEM_BOND_DEF_STEREO_COUNT>
1

> <PUBCHEM_BOND_UDEF_STEREO_COUNT>
0

> <PUBCHEM_ISOTOPIC_ATOM_COUNT>
0

> <PUBCHEM_COMPONENT_COUNT>
1

> <PUBCHEM_CACTVS_TAUTO_COUNT>
1

> <PUBCHEM_CONFORMER_ID>
0051E79A00000001

> <PUBCHEM_MMFF94_ENERGY>
27.5395

> <PUBCHEM_FEATURE_SELFOVERLAP>
15.223

> <PUBCHEM_SHAPE_FINGERPRINT>
10382601 240 18114179683924569218
10465860 228 18411702045664402378
10646746 165 18341048618359420192
10681291 71 18338250300968480573
11615756 256 18336831978033844301
12162725 195 18336822082497727135
13618510 140 18409163346187718181
14123255 52 18339644417662673841
14123260 362 17918000447252345641
14251764 38 17772736402290402408
15239191 94 8430317947951341025
15342168 16 18336837416058695957
15442244 35 18335412453093921034
15775835 57 18272090466022239897
1741750 31 18342740723752166491
17810953 82 18053111618771548289
17834072 32 18410858776054333193
1798214 55 18412547595902515129
18186145 218 18410011009523204348
18219364 16 17968933090094659629
19107657 9 18408610287496805613
20539926 19 18410863169652785861
20621476 13 17687736143639336909
21524375 3 18335132145873821031
21665062 11 18187645756642297136
22182937 141 18410300237353747227
22485316 2 9295298243643363734
22749437 52 18409724080017499637
23557571 272 17561081449256733167
27216 239 18333455352714250849
474 4 18337388249740134817
5104073 3 18261667173179372448
633830 44 18343022198702341540
8199 26 18412827992821231553

> <PUBCHEM_SHAPE_MULTIPOLES>
296.95
8.54
2.56
0.89
2.98
0.46
-0.02
-5.23
1.4
0.3
0.13
0.55
-0.23
-0.78

> <PUBCHEM_SHAPE_SELFOVERLAP>
599.795

> <PUBCHEM_SHAPE_VOLUME>
173.4

> <PUBCHEM_COORDINATE_TYPE>
2
5
10

$$$$
