5367807
  -OEChem-11232108473D

 27 26  0     0  0  0  0  0  0999 V2000
   -0.2660   -0.2283    0.2451 O   0  0  0  0  0  0  0  0  0  0  0  0
    0.8976   -1.1476   -1.5159 O   0  0  0  0  0  0  0  0  0  0  0  0
   -2.6765   -0.0284    0.4385 C   0  0  0  0  0  0  0  0  0  0  0  0
   -1.5024   -0.5038   -0.4219 C   0  0  0  0  0  0  0  0  0  0  0  0
   -2.6108    1.4802    0.6863 C   0  0  0  0  0  0  0  0  0  0  0  0
   -4.0037   -0.4011   -0.2186 C   0  0  0  0  0  0  0  0  0  0  0  0
    0.8597   -0.6055   -0.4206 C   0  0  0  0  0  0  0  0  0  0  0  0
    2.0608   -0.2601    0.3990 C   0  0  0  0  0  0  0  0  0  0  0  0
    2.5546   -1.2654    1.3970 C   0  0  0  0  0  0  0  0  0  0  0  0
    2.5859    0.9605    0.1858 C   0  0  0  0  0  0  0  0  0  0  0  0
    2.1008    1.9995   -0.7747 C   0  0  0  0  0  0  0  0  0  0  0  0
   -2.6151   -0.5239    1.4158 H   0  0  0  0  0  0  0  0  0  0  0  0
   -1.5798   -1.5848   -0.5897 H   0  0  0  0  0  0  0  0  0  0  0  0
   -1.5103    0.0069   -1.3928 H   0  0  0  0  0  0  0  0  0  0  0  0
   -3.4556    1.8090    1.3009 H   0  0  0  0  0  0  0  0  0  0  0  0
   -2.6403    2.0384   -0.2557 H   0  0  0  0  0  0  0  0  0  0  0  0
   -1.6919    1.7550    1.2143 H   0  0  0  0  0  0  0  0  0  0  0  0
   -4.8478   -0.0916    0.4066 H   0  0  0  0  0  0  0  0  0  0  0  0
   -4.0752   -1.4843   -0.3632 H   0  0  0  0  0  0  0  0  0  0  0  0
   -4.1125    0.0796   -1.1967 H   0  0  0  0  0  0  0  0  0  0  0  0
    3.4210   -0.8918    1.9521 H   0  0  0  0  0  0  0  0  0  0  0  0
    1.7670   -1.5028    2.1192 H   0  0  0  0  0  0  0  0  0  0  0  0
    2.8505   -2.1885    0.8888 H   0  0  0  0  0  0  0  0  0  0  0  0
    3.4551    1.2502    0.7735 H   0  0  0  0  0  0  0  0  0  0  0  0
    1.8373    2.9095   -0.2263 H   0  0  0  0  0  0  0  0  0  0  0  0
    1.2274    1.6983   -1.3580 H   0  0  0  0  0  0  0  0  0  0  0  0
    2.9013    2.2483   -1.4786 H   0  0  0  0  0  0  0  0  0  0  0  0
  1  4  1  0  0  0  0
  1  7  1  0  0  0  0
  2  7  2  0  0  0  0
  3  4  1  0  0  0  0
  3  5  1  0  0  0  0
  3  6  1  0  0  0  0
  3 12  1  0  0  0  0
  4 13  1  0  0  0  0
  4 14  1  0  0  0  0
  5 15  1  0  0  0  0
  5 16  1  0  0  0  0
  5 17  1  0  0  0  0
  6 18  1  0  0  0  0
  6 19  1  0  0  0  0
  6 20  1  0  0  0  0
  7  8  1  0  0  0  0
  8  9  1  0  0  0  0
  8 10  2  0  0  0  0
  9 21  1  0  0  0  0
  9 22  1  0  0  0  0
  9 23  1  0  0  0  0
 10 11  1  0  0  0  0
 10 24  1  0  0  0  0
 11 25  1  0  0  0  0
 11 26  1  0  0  0  0
 11 27  1  0  0  0  0
M  END
> <PUBCHEM_COMPOUND_CID>
5367807

> <PUBCHEM_CONFORMER_RMSD>
0.6

> <PUBCHEM_CONFORMER_DIVERSEORDER>
1
25
26
23
24
19
21
17
15
9
6
20
13
3
22
27
10
30
28
11
18
16
12
29
14
5
31
4
8
7
2

> <PUBCHEM_MMFF94_PARTIAL_CHARGES>
9
1 -0.43
10 -0.29
11 0.14
2 -0.57
24 0.15
4 0.28
7 0.71
8 -0.12
9 0.14

> <PUBCHEM_EFFECTIVE_ROTOR_COUNT>
4

> <PUBCHEM_PHARMACOPHORE_FEATURES>
4
1 11 hydrophobe
1 2 acceptor
1 9 hydrophobe
3 3 5 6 hydrophobe

> <PUBCHEM_HEAVY_ATOM_COUNT>
11

> <PUBCHEM_ATOM_DEF_STEREO_COUNT>
0

> <PUBCHEM_ATOM_UDEF_STEREO_COUNT>
0

> <PUBCHEM_BOND_DEF_STEREO_COUNT>
1

> <PUBCHEM_BOND_UDEF_STEREO_COUNT>
0

> <PUBCHEM_ISOTOPIC_ATOM_COUNT>
0

> <PUBCHEM_COMPONENT_COUNT>
1

> <PUBCHEM_CACTVS_TAUTO_COUNT>
1

> <PUBCHEM_CONFORMER_ID>
0051E7FF00000001

> <PUBCHEM_MMFF94_ENERGY>
17.0238

> <PUBCHEM_FEATURE_SELFOVERLAP>
20.297

> <PUBCHEM_SHAPE_FINGERPRINT>
12162725 195 18411700972017498113
12251169 10 18335413578016669546
12696612 119 18335425638216485756
12932764 1 17894636928731310495
14390081 3 16630803288210528747
15501101 241 17167856444342057542
15775835 57 18199468933924817928
170605 34 18338242673043083932
19973954 147 18057897857005194169
20279233 1 15140679180904214363
20539784 86 17749389286607425904
20559304 39 18342736316894019008
20871998 22 18118391848947535522
21028194 46 17846498136139486363
21524375 3 18193844975167546052
21730867 7 17603302669782349410
22169311 21 17095519626022177251
230 275 16702016457159997722
3248919 1 18201439151677390091
449060 62 18336270157746732925

> <PUBCHEM_SHAPE_MULTIPOLES>
214.64
5.92
1.61
1.12
4.64
0.74
0.1
0.43
-0.95
-1.09
-0.02
-0.39
-0.25
-0.87

> <PUBCHEM_SHAPE_SELFOVERLAP>
401.029

> <PUBCHEM_SHAPE_VOLUME>
135.5

> <PUBCHEM_COORDINATE_TYPE>
2
5
10

$$$$
