5367806
  -OEChem-11232108503D

 27 26  0     0  0  0  0  0  0999 V2000
    0.4701   -0.0628    0.1130 O   0  0  0  0  0  0  0  0  0  0  0  0
   -0.6852    1.7835   -0.6338 O   0  0  0  0  0  0  0  0  0  0  0  0
    2.8691   -0.2360    0.4316 C   0  0  0  0  0  0  0  0  0  0  0  0
    1.7021    0.6582    0.0040 C   0  0  0  0  0  0  0  0  0  0  0  0
    2.9778   -1.4748   -0.4600 C   0  0  0  0  0  0  0  0  0  0  0  0
    4.1782    0.5501    0.4099 C   0  0  0  0  0  0  0  0  0  0  0  0
   -0.6495    0.6263   -0.2404 C   0  0  0  0  0  0  0  0  0  0  0  0
   -1.8476   -0.2506   -0.0686 C   0  0  0  0  0  0  0  0  0  0  0  0
   -1.6868   -1.7259   -0.2864 C   0  0  0  0  0  0  0  0  0  0  0  0
   -2.9957    0.3784    0.2431 C   0  0  0  0  0  0  0  0  0  0  0  0
   -4.3325   -0.2464    0.4877 C   0  0  0  0  0  0  0  0  0  0  0  0
    2.6838   -0.5846    1.4556 H   0  0  0  0  0  0  0  0  0  0  0  0
    1.6537    1.5403    0.6541 H   0  0  0  0  0  0  0  0  0  0  0  0
    1.8361    0.9895   -1.0332 H   0  0  0  0  0  0  0  0  0  0  0  0
    3.8164   -2.1056   -0.1462 H   0  0  0  0  0  0  0  0  0  0  0  0
    3.1372   -1.1969   -1.5074 H   0  0  0  0  0  0  0  0  0  0  0  0
    2.0690   -2.0829   -0.4051 H   0  0  0  0  0  0  0  0  0  0  0  0
    5.0129   -0.0748    0.7447 H   0  0  0  0  0  0  0  0  0  0  0  0
    4.1223    1.4171    1.0766 H   0  0  0  0  0  0  0  0  0  0  0  0
    4.4089    0.9117   -0.5981 H   0  0  0  0  0  0  0  0  0  0  0  0
   -2.6341   -2.2292   -0.4963 H   0  0  0  0  0  0  0  0  0  0  0  0
   -1.0381   -1.9165   -1.1487 H   0  0  0  0  0  0  0  0  0  0  0  0
   -1.2361   -2.1941    0.5945 H   0  0  0  0  0  0  0  0  0  0  0  0
   -2.9941    1.4611    0.3601 H   0  0  0  0  0  0  0  0  0  0  0  0
   -4.7288    0.1041    1.4463 H   0  0  0  0  0  0  0  0  0  0  0  0
   -4.3035   -1.3374    0.5277 H   0  0  0  0  0  0  0  0  0  0  0  0
   -5.0318    0.0526   -0.2989 H   0  0  0  0  0  0  0  0  0  0  0  0
  1  4  1  0  0  0  0
  1  7  1  0  0  0  0
  2  7  2  0  0  0  0
  3  4  1  0  0  0  0
  3  5  1  0  0  0  0
  3  6  1  0  0  0  0
  3 12  1  0  0  0  0
  4 13  1  0  0  0  0
  4 14  1  0  0  0  0
  5 15  1  0  0  0  0
  5 16  1  0  0  0  0
  5 17  1  0  0  0  0
  6 18  1  0  0  0  0
  6 19  1  0  0  0  0
  6 20  1  0  0  0  0
  7  8  1  0  0  0  0
  8  9  1  0  0  0  0
  8 10  2  0  0  0  0
  9 21  1  0  0  0  0
  9 22  1  0  0  0  0
  9 23  1  0  0  0  0
 10 11  1  0  0  0  0
 10 24  1  0  0  0  0
 11 25  1  0  0  0  0
 11 26  1  0  0  0  0
 11 27  1  0  0  0  0
M  END
> <PUBCHEM_COMPOUND_CID>
5367806

> <PUBCHEM_CONFORMER_RMSD>
0.6

> <PUBCHEM_CONFORMER_DIVERSEORDER>
1
15
28
37
36
34
27
9
32
31
14
12
33
20
23
10
35
26
21
18
7
19
30
8
24
16
22
17
29
2
11
3
5
13
6
4
25

> <PUBCHEM_MMFF94_PARTIAL_CHARGES>
9
1 -0.43
10 -0.29
11 0.14
2 -0.57
24 0.15
4 0.28
7 0.71
8 -0.12
9 0.14

> <PUBCHEM_EFFECTIVE_ROTOR_COUNT>
4

> <PUBCHEM_PHARMACOPHORE_FEATURES>
4
1 11 hydrophobe
1 2 acceptor
1 9 hydrophobe
3 3 5 6 hydrophobe

> <PUBCHEM_HEAVY_ATOM_COUNT>
11

> <PUBCHEM_ATOM_DEF_STEREO_COUNT>
0

> <PUBCHEM_ATOM_UDEF_STEREO_COUNT>
0

> <PUBCHEM_BOND_DEF_STEREO_COUNT>
1

> <PUBCHEM_BOND_UDEF_STEREO_COUNT>
0

> <PUBCHEM_ISOTOPIC_ATOM_COUNT>
0

> <PUBCHEM_COMPONENT_COUNT>
1

> <PUBCHEM_CACTVS_TAUTO_COUNT>
1

> <PUBCHEM_CONFORMER_ID>
0051E7FE00000001

> <PUBCHEM_MMFF94_ENERGY>
14.2774

> <PUBCHEM_FEATURE_SELFOVERLAP>
20.298

> <PUBCHEM_SHAPE_FINGERPRINT>
11062470 55 17203610393212672777
12032990 46 18333739009239104355
12251169 10 18272089426223273489
12932764 1 17968082132192079504
13690532 89 18410009975132599919
14252887 29 18409175406498271866
14325111 11 18341049635870842056
14445660 50 18201161034979989768
15775835 57 18273495689032264814
190213 19 18113339704201185833
20201158 50 18341892991713053802
20279233 1 18412263939140323386
20281407 28 18409452479106967690
20528008 55 18201714063506138211
20645477 70 18201435818556344318
20871998 22 18336270058930420908
22485316 2 18334572443100019035
449060 50 18201719586945045632

> <PUBCHEM_SHAPE_MULTIPOLES>
214.64
7.54
1.45
0.72
0.65
0.31
0
0.55
-1.53
0.12
0.3
0.01
-0.03
0.24

> <PUBCHEM_SHAPE_SELFOVERLAP>
401.053

> <PUBCHEM_SHAPE_VOLUME>
135.1

> <PUBCHEM_COORDINATE_TYPE>
2
5
10

$$$$
