5367687
  -OEChem-11232108483D

 38 37  0     0  0  0  0  0  0999 V2000
    1.5647   -1.0081    0.2539 O   0  0  0  0  0  0  0  0  0  0  0  0
    1.3552   -3.2917    0.5645 O   0  0  0  0  0  0  0  0  0  0  0  0
   -3.1772    0.6654   -0.2063 C   0  0  0  0  0  0  0  0  0  0  0  0
   -3.7581   -0.7478   -0.0871 C   0  0  0  0  0  0  0  0  0  0  0  0
   -3.9400    1.6536    0.6769 C   0  0  0  0  0  0  0  0  0  0  0  0
   -3.0039   -1.7741   -0.9344 C   0  0  0  0  0  0  0  0  0  0  0  0
   -3.3505    3.0520    0.5860 C   0  0  0  0  0  0  0  0  0  0  0  0
    3.5433    0.3321    0.6098 C   0  0  0  0  0  0  0  0  0  0  0  0
   -1.6059   -1.9278   -0.5089 C   0  0  0  0  0  0  0  0  0  0  0  0
    2.9358   -1.0647    0.6608 C   0  0  0  0  0  0  0  0  0  0  0  0
    3.4536    0.9273   -0.7672 C   0  0  0  0  0  0  0  0  0  0  0  0
    2.0926    2.8953   -0.0185 C   0  0  0  0  0  0  0  0  0  0  0  0
    2.8073    2.0690   -1.0462 C   0  0  0  0  0  0  0  0  0  0  0  0
    0.6396    2.4690    0.1222 C   0  0  0  0  0  0  0  0  0  0  0  0
   -0.4629   -2.0520   -0.1620 C   0  0  0  0  0  0  0  0  0  0  0  0
    0.9065   -2.1976    0.2565 C   0  0  0  0  0  0  0  0  0  0  0  0
   -2.1221    0.6695    0.0899 H   0  0  0  0  0  0  0  0  0  0  0  0
   -3.2208    0.9933   -1.2520 H   0  0  0  0  0  0  0  0  0  0  0  0
   -3.7443   -1.0602    0.9649 H   0  0  0  0  0  0  0  0  0  0  0  0
   -4.8087   -0.7348   -0.4023 H   0  0  0  0  0  0  0  0  0  0  0  0
   -3.9137    1.3203    1.7209 H   0  0  0  0  0  0  0  0  0  0  0  0
   -4.9927    1.6860    0.3728 H   0  0  0  0  0  0  0  0  0  0  0  0
   -3.5137   -2.7415   -0.8579 H   0  0  0  0  0  0  0  0  0  0  0  0
   -3.0392   -1.4794   -1.9896 H   0  0  0  0  0  0  0  0  0  0  0  0
   -2.3176    3.0645    0.9449 H   0  0  0  0  0  0  0  0  0  0  0  0
   -3.9299    3.7476    1.2012 H   0  0  0  0  0  0  0  0  0  0  0  0
   -3.3628    3.4186   -0.4453 H   0  0  0  0  0  0  0  0  0  0  0  0
    3.0449    0.9394    1.3686 H   0  0  0  0  0  0  0  0  0  0  0  0
    4.5997    0.2755    0.8967 H   0  0  0  0  0  0  0  0  0  0  0  0
    2.9961   -1.4528    1.6844 H   0  0  0  0  0  0  0  0  0  0  0  0
    3.4838   -1.7407   -0.0072 H   0  0  0  0  0  0  0  0  0  0  0  0
    3.9460    0.3944   -1.5764 H   0  0  0  0  0  0  0  0  0  0  0  0
    2.5944    2.8963    0.9534 H   0  0  0  0  0  0  0  0  0  0  0  0
    2.1219    3.9401   -0.3531 H   0  0  0  0  0  0  0  0  0  0  0  0
    2.7824    2.4185   -2.0750 H   0  0  0  0  0  0  0  0  0  0  0  0
    0.1209    3.1460    0.8083 H   0  0  0  0  0  0  0  0  0  0  0  0
    0.5533    1.4567    0.5269 H   0  0  0  0  0  0  0  0  0  0  0  0
    0.1175    2.4996   -0.8402 H   0  0  0  0  0  0  0  0  0  0  0  0
  1 10  1  0  0  0  0
  1 16  1  0  0  0  0
  2 16  2  0  0  0  0
  3  4  1  0  0  0  0
  3  5  1  0  0  0  0
  3 17  1  0  0  0  0
  3 18  1  0  0  0  0
  4  6  1  0  0  0  0
  4 19  1  0  0  0  0
  4 20  1  0  0  0  0
  5  7  1  0  0  0  0
  5 21  1  0  0  0  0
  5 22  1  0  0  0  0
  6  9  1  0  0  0  0
  6 23  1  0  0  0  0
  6 24  1  0  0  0  0
  7 25  1  0  0  0  0
  7 26  1  0  0  0  0
  7 27  1  0  0  0  0
  8 10  1  0  0  0  0
  8 11  1  0  0  0  0
  8 28  1  0  0  0  0
  8 29  1  0  0  0  0
  9 15  3  0  0  0  0
 10 30  1  0  0  0  0
 10 31  1  0  0  0  0
 11 13  2  0  0  0  0
 11 32  1  0  0  0  0
 12 13  1  0  0  0  0
 12 14  1  0  0  0  0
 12 33  1  0  0  0  0
 12 34  1  0  0  0  0
 13 35  1  0  0  0  0
 14 36  1  0  0  0  0
 14 37  1  0  0  0  0
 14 38  1  0  0  0  0
 15 16  1  0  0  0  0
M  END
> <PUBCHEM_COMPOUND_CID>
5367687

> <PUBCHEM_CONFORMER_RMSD>
1

> <PUBCHEM_CONFORMER_DIVERSEORDER>
4
268
194
121
474
638
13
187
591
655
85
510
553
306
26
255
356
570
22
527
556
3
517
285
380
173
610
98
426
41
369
279
124
5
286
254
76
47
485
566
18
185
184
89
611
190
453
585
407
467
99
15
202
497
74
84
494
388
569
153
157
249
363
31
143
600
501
629
222
10
198
35
39
433
29
484
7
92
88
540
536
44
119
617
373
631
2
646
599
33
36
262
637
277
505
179
1
389
208
457
93
73
110
6
123
216
471
8
59
213
53
565
358
205
106
16
294
243
499
127
46
195
162
350

> <PUBCHEM_MMFF94_PARTIAL_CHARGES>
13
1 -0.43
10 0.28
11 -0.29
12 0.14
13 -0.29
15 -0.1
16 0.83
2 -0.57
32 0.15
35 0.15
6 0.2
8 0.14
9 -0.2

> <PUBCHEM_EFFECTIVE_ROTOR_COUNT>
8

> <PUBCHEM_PHARMACOPHORE_FEATURES>
4
1 14 hydrophobe
1 2 acceptor
1 7 hydrophobe
5 3 4 5 6 9 hydrophobe

> <PUBCHEM_HEAVY_ATOM_COUNT>
16

> <PUBCHEM_ATOM_DEF_STEREO_COUNT>
0

> <PUBCHEM_ATOM_UDEF_STEREO_COUNT>
0

> <PUBCHEM_BOND_DEF_STEREO_COUNT>
1

> <PUBCHEM_BOND_UDEF_STEREO_COUNT>
0

> <PUBCHEM_ISOTOPIC_ATOM_COUNT>
0

> <PUBCHEM_COMPONENT_COUNT>
1

> <PUBCHEM_CACTVS_TAUTO_COUNT>
1

> <PUBCHEM_CONFORMER_ID>
0051E78700000004

> <PUBCHEM_MMFF94_ENERGY>
2.2021

> <PUBCHEM_FEATURE_SELFOVERLAP>
20.297

> <PUBCHEM_SHAPE_FINGERPRINT>
10708813 3 18411141316183030637
12038231 1 18267021850409607117
14123250 116 18338237175690517411
17810953 82 17909275685142604049
17834072 32 18268995272328997593
19930381 70 16754371138073213275
20539926 19 18411142458459279892
20621476 13 17616809934297435549
20621476 7 18121789322375779481
21141583 151 17985837161811312433
21249577 28 18411134766162459105
21524375 3 18116141350129359854
21665062 11 18048601421583313435
21864079 5 18337955700355156111
44154327 71 18197219140066328433
474 4 18260826012076478331
5048184 11 18411427193638499677
7064713 232 18199457766872737752
7832392 63 18340485552078021479
8199 26 18411982459800054147

> <PUBCHEM_SHAPE_MULTIPOLES>
317.53
7.89
4.37
0.92
2.89
0.68
0.09
3.62
-0.01
0.53
-0.4
-0.18
0.06
-1.87

> <PUBCHEM_SHAPE_SELFOVERLAP>
593.855

> <PUBCHEM_SHAPE_VOLUME>
197.1

> <PUBCHEM_COORDINATE_TYPE>
2
5
10

$$$$
