5367762
  -OEChem-11232109033D

 24 23  0     0  0  0  0  0  0999 V2000
    0.7531   -0.2641    0.0182 O   0  0  0  0  0  0  0  0  0  0  0  0
   -0.2694    1.7530   -0.4139 O   0  0  0  0  0  0  0  0  0  0  0  0
    3.1103   -0.6728    0.2348 C   0  0  0  0  0  0  0  0  0  0  0  0
    2.0350    0.3718   -0.0218 C   0  0  0  0  0  0  0  0  0  0  0  0
    4.5018   -0.0660    0.2221 C   0  0  0  0  0  0  0  0  0  0  0  0
   -1.5751   -0.2507   -0.1175 C   0  0  0  0  0  0  0  0  0  0  0  0
   -0.3161    0.5508   -0.1957 C   0  0  0  0  0  0  0  0  0  0  0  0
   -1.5340   -1.6851   -0.5540 C   0  0  0  0  0  0  0  0  0  0  0  0
   -2.6646    0.4083    0.3182 C   0  0  0  0  0  0  0  0  0  0  0  0
   -4.0410   -0.1452    0.5097 C   0  0  0  0  0  0  0  0  0  0  0  0
    2.9260   -1.1610    1.1992 H   0  0  0  0  0  0  0  0  0  0  0  0
    3.0416   -1.4644   -0.5211 H   0  0  0  0  0  0  0  0  0  0  0  0
    2.0751    1.1513    0.7481 H   0  0  0  0  0  0  0  0  0  0  0  0
    2.1812    0.8293   -1.0073 H   0  0  0  0  0  0  0  0  0  0  0  0
    4.6028    0.7003    0.9972 H   0  0  0  0  0  0  0  0  0  0  0  0
    5.2543   -0.8386    0.4084 H   0  0  0  0  0  0  0  0  0  0  0  0
    4.7203    0.3941   -0.7470 H   0  0  0  0  0  0  0  0  0  0  0  0
   -2.5215   -2.0802   -0.8055 H   0  0  0  0  0  0  0  0  0  0  0  0
   -0.9197   -1.7929   -1.4549 H   0  0  0  0  0  0  0  0  0  0  0  0
   -1.1037   -2.3110    0.2342 H   0  0  0  0  0  0  0  0  0  0  0  0
   -2.5765    1.4586    0.5926 H   0  0  0  0  0  0  0  0  0  0  0  0
   -4.3901    0.0877    1.5210 H   0  0  0  0  0  0  0  0  0  0  0  0
   -4.0962   -1.2291    0.3887 H   0  0  0  0  0  0  0  0  0  0  0  0
   -4.7301    0.3182   -0.2029 H   0  0  0  0  0  0  0  0  0  0  0  0
  1  4  1  0  0  0  0
  1  7  1  0  0  0  0
  2  7  2  0  0  0  0
  3  4  1  0  0  0  0
  3  5  1  0  0  0  0
  3 11  1  0  0  0  0
  3 12  1  0  0  0  0
  4 13  1  0  0  0  0
  4 14  1  0  0  0  0
  5 15  1  0  0  0  0
  5 16  1  0  0  0  0
  5 17  1  0  0  0  0
  6  7  1  0  0  0  0
  6  8  1  0  0  0  0
  6  9  2  0  0  0  0
  8 18  1  0  0  0  0
  8 19  1  0  0  0  0
  8 20  1  0  0  0  0
  9 10  1  0  0  0  0
  9 21  1  0  0  0  0
 10 22  1  0  0  0  0
 10 23  1  0  0  0  0
 10 24  1  0  0  0  0
M  END
> <PUBCHEM_COMPOUND_CID>
5367762

> <PUBCHEM_CONFORMER_RMSD>
0.6

> <PUBCHEM_CONFORMER_DIVERSEORDER>
1
61
29
39
4
24
55
41
59
30
42
56
58
44
14
50
43
35
3
25
12
54
17
45
38
52
22
36
51
60
40
32
33
53
20
34
47
27
31
8
19
57
23
9
37
28
2
11
46
15
26
16
49
13
18
21
48
6
5
7
10

> <PUBCHEM_MMFF94_PARTIAL_CHARGES>
9
1 -0.43
10 0.14
2 -0.57
21 0.15
4 0.28
6 -0.12
7 0.71
8 0.14
9 -0.29

> <PUBCHEM_EFFECTIVE_ROTOR_COUNT>
4

> <PUBCHEM_PHARMACOPHORE_FEATURES>
4
1 10 hydrophobe
1 2 acceptor
1 5 hydrophobe
1 8 hydrophobe

> <PUBCHEM_HEAVY_ATOM_COUNT>
10

> <PUBCHEM_ATOM_DEF_STEREO_COUNT>
0

> <PUBCHEM_ATOM_UDEF_STEREO_COUNT>
0

> <PUBCHEM_BOND_DEF_STEREO_COUNT>
1

> <PUBCHEM_BOND_UDEF_STEREO_COUNT>
0

> <PUBCHEM_ISOTOPIC_ATOM_COUNT>
0

> <PUBCHEM_COMPONENT_COUNT>
1

> <PUBCHEM_CACTVS_TAUTO_COUNT>
1

> <PUBCHEM_CONFORMER_ID>
0051E7D200000001

> <PUBCHEM_MMFF94_ENERGY>
9.8363

> <PUBCHEM_FEATURE_SELFOVERLAP>
20.298

> <PUBCHEM_SHAPE_FINGERPRINT>
11062470 55 15913329087007067443
12251169 10 18272932738904490920
12932764 1 18187911885858919888
13690532 89 18411134771111528223
14445660 50 18202003256839740770
14993402 34 18411412921635670423
20645464 45 17703794721178272279
21293036 1 9583515408559841715
22485316 2 17894909628804992483
23402539 116 17131827660593065389
23552423 10 17903922502028036125
449060 50 17775005699910711032

> <PUBCHEM_SHAPE_MULTIPOLES>
194.06
7.27
1.26
0.7
4.25
0.09
-0.01
0.76
-1.62
-0.42
0.25
-0.14
0.02
-0.2

> <PUBCHEM_SHAPE_SELFOVERLAP>
359.976

> <PUBCHEM_SHAPE_VOLUME>
122.7

> <PUBCHEM_COORDINATE_TYPE>
2
5
10

$$$$
