5368797
  -OEChem-11232109483D

 40 42  0     1  0  0  0  0  0999 V2000
    5.0862    0.4978    1.3332 O   0  0  0  0  0  0  0  0  0  0  0  0
   -2.3143   -0.2624    0.8748 C   0  0  0  0  0  0  0  0  0  0  0  0
   -2.3778    1.2326    0.9474 C   0  0  2  0  0  0  0  0  0  0  0  0
   -3.4619    0.4778    0.2589 C   0  0  1  0  0  0  0  0  0  0  0  0
   -1.3417   -0.6499   -0.2317 C   0  0  1  0  0  0  0  0  0  0  0  0
   -1.6581    0.6210   -1.1271 C   0  0  0  0  0  0  0  0  0  0  0  0
   -1.4795    1.8116   -0.1234 C   0  0  0  0  0  0  0  0  0  0  0  0
   -3.2220    0.5985   -1.2299 C   0  0  0  0  0  0  0  0  0  0  0  0
   -2.4999   -1.0958    2.0798 C   0  0  0  0  0  0  0  0  0  0  0  0
    0.1124   -0.7165    0.2500 C   0  0  0  0  0  0  0  0  0  0  0  0
   -1.7032   -1.9803   -0.9025 C   0  0  0  0  0  0  0  0  0  0  0  0
    1.0786   -0.8465   -0.9247 C   0  0  0  0  0  0  0  0  0  0  0  0
    2.5120   -0.9694   -0.4862 C   0  0  0  0  0  0  0  0  0  0  0  0
    3.4100    0.0170   -0.2980 C   0  0  0  0  0  0  0  0  0  0  0  0
    4.8432   -0.1881    0.1120 C   0  0  0  0  0  0  0  0  0  0  0  0
    3.0159    1.4527   -0.5325 C   0  0  0  0  0  0  0  0  0  0  0  0
   -2.5413    1.7779    1.8562 H   0  0  0  0  0  0  0  0  0  0  0  0
   -4.4658    0.4380    0.6340 H   0  0  0  0  0  0  0  0  0  0  0  0
   -1.1335    0.7112   -2.0782 H   0  0  0  0  0  0  0  0  0  0  0  0
   -0.4523    1.9630    0.2120 H   0  0  0  0  0  0  0  0  0  0  0  0
   -1.8746    2.7525   -0.5203 H   0  0  0  0  0  0  0  0  0  0  0  0
   -3.6287    1.5299   -1.6366 H   0  0  0  0  0  0  0  0  0  0  0  0
   -3.6114   -0.2516   -1.7943 H   0  0  0  0  0  0  0  0  0  0  0  0
   -3.2549   -0.6745    2.7526 H   0  0  0  0  0  0  0  0  0  0  0  0
   -2.8250   -2.1053    1.8097 H   0  0  0  0  0  0  0  0  0  0  0  0
   -1.5658   -1.1789    2.6441 H   0  0  0  0  0  0  0  0  0  0  0  0
    0.3838    0.1454    0.8689 H   0  0  0  0  0  0  0  0  0  0  0  0
    0.2363   -1.5811    0.9171 H   0  0  0  0  0  0  0  0  0  0  0  0
   -2.7858   -2.1292   -0.9748 H   0  0  0  0  0  0  0  0  0  0  0  0
   -1.2978   -2.0459   -1.9171 H   0  0  0  0  0  0  0  0  0  0  0  0
   -1.3254   -2.8324   -0.3256 H   0  0  0  0  0  0  0  0  0  0  0  0
    0.8607   -1.7500   -1.5058 H   0  0  0  0  0  0  0  0  0  0  0  0
    0.9654   -0.0196   -1.6313 H   0  0  0  0  0  0  0  0  0  0  0  0
    2.8420   -1.9906   -0.2992 H   0  0  0  0  0  0  0  0  0  0  0  0
    5.0701   -1.2486    0.2618 H   0  0  0  0  0  0  0  0  0  0  0  0
    5.5173    0.2057   -0.6557 H   0  0  0  0  0  0  0  0  0  0  0  0
    3.2283    2.0541    0.3581 H   0  0  0  0  0  0  0  0  0  0  0  0
    3.5940    1.8650   -1.3666 H   0  0  0  0  0  0  0  0  0  0  0  0
    1.9589    1.6060   -0.7575 H   0  0  0  0  0  0  0  0  0  0  0  0
    6.0212    0.3550    1.5592 H   0  0  0  0  0  0  0  0  0  0  0  0
  1 15  1  0  0  0  0
  1 40  1  0  0  0  0
  2  3  1  0  0  0  0
  2  4  1  0  0  0  0
  2  5  1  0  0  0  0
  2  9  1  0  0  0  0
  3  4  1  0  0  0  0
  3  7  1  0  0  0  0
  3 17  1  0  0  0  0
  4  8  1  0  0  0  0
  4 18  1  0  0  0  0
  5  6  1  0  0  0  0
  5 10  1  0  0  0  0
  5 11  1  0  0  0  0
  6  7  1  0  0  0  0
  6  8  1  0  0  0  0
  6 19  1  0  0  0  0
  7 20  1  0  0  0  0
  7 21  1  0  0  0  0
  8 22  1  0  0  0  0
  8 23  1  0  0  0  0
  9 24  1  0  0  0  0
  9 25  1  0  0  0  0
  9 26  1  0  0  0  0
 10 12  1  0  0  0  0
 10 27  1  0  0  0  0
 10 28  1  0  0  0  0
 11 29  1  0  0  0  0
 11 30  1  0  0  0  0
 11 31  1  0  0  0  0
 12 13  1  0  0  0  0
 12 32  1  0  0  0  0
 12 33  1  0  0  0  0
 13 14  2  0  0  0  0
 13 34  1  0  0  0  0
 14 15  1  0  0  0  0
 14 16  1  0  0  0  0
 15 35  1  0  0  0  0
 15 36  1  0  0  0  0
 16 37  1  0  0  0  0
 16 38  1  0  0  0  0
 16 39  1  0  0  0  0
M  END
> <PUBCHEM_COMPOUND_CID>
5368797

> <PUBCHEM_CONFORMER_RMSD>
0.6

> <PUBCHEM_CONFORMER_DIVERSEORDER>
1
19
4
23
8
29
25
14
2
6
5
20
17
22
16
3
15
18
28
26
7
9
12
27
13
10
24
11
21

> <PUBCHEM_MMFF94_PARTIAL_CHARGES>
17
1 -0.68
12 0.14
13 -0.29
14 -0.28
15 0.42
16 0.14
17 0.1
18 0.1
2 -0.19
3 -0.19
34 0.15
4 -0.19
40 0.4
5 0.09
7 0.09
8 0.09
9 0.09

> <PUBCHEM_EFFECTIVE_ROTOR_COUNT>
4.6

> <PUBCHEM_PHARMACOPHORE_FEATURES>
4
1 1 acceptor
1 1 donor
1 16 hydrophobe
7 2 3 4 5 6 7 8 rings

> <PUBCHEM_HEAVY_ATOM_COUNT>
16

> <PUBCHEM_ATOM_DEF_STEREO_COUNT>
0

> <PUBCHEM_ATOM_UDEF_STEREO_COUNT>
3

> <PUBCHEM_BOND_DEF_STEREO_COUNT>
1

> <PUBCHEM_BOND_UDEF_STEREO_COUNT>
0

> <PUBCHEM_ISOTOPIC_ATOM_COUNT>
0

> <PUBCHEM_COMPONENT_COUNT>
1

> <PUBCHEM_CACTVS_TAUTO_COUNT>
1

> <PUBCHEM_CONFORMER_ID>
0051EBDD00000001

> <PUBCHEM_MMFF94_ENERGY>
63.3775

> <PUBCHEM_FEATURE_SELFOVERLAP>
20.297

> <PUBCHEM_SHAPE_FINGERPRINT>
11127187 94 9223227412574005075
11132069 177 18343302582825884908
12077114 3 18114176406827696596
12173636 292 17917718963448160927
12403814 3 18409733984391094417
124424 183 18040992930257934876
12507557 5 18334855052317581732
12596602 18 17458620160283967640
12633257 1 17822584840804812264
13024252 1 17095245813446314511
13214271 11 18114187444809329055
13583140 156 17967809466325213890
13675066 3 18260830389207023314
14004511 7 18201440264242770446
14142880 1 18266179439993268797
15309172 13 18271817799786096095
15653759 3 17748831821485477468
16945 1 17387157328778998711
17780758 139 16515952710679128456
17802600 8 18412538812810497868
18186145 218 17632308869414183518
200 152 18271799138311210503
20300324 65 15985096422881211406
20325693 3 12535348999772845801
20645477 56 18202568371483215398
20871999 31 12391514165502723971
21623110 236 17844520226575286520
22094290 60 13398628346533921515
22169311 14 17312822684519357068
22646028 28 14562533989956769778
2306618 200 18272370858376963897
23402539 116 18272359872008668733
23419403 2 17972604561604818193
23557571 272 17987249978476153606
23559900 14 17895768279126134446
27216 239 18412268319848619065
351380 180 18334571326519330844
4921388 177 15267342954625668124
5706482 22 16950281767891619971
633830 44 16056613053647059470

> <PUBCHEM_SHAPE_MULTIPOLES>
323.4
8.2
1.62
1.4
12.09
0.05
0.4
1.33
1.87
-0.65
-0.13
-0.76
-0.27
0.41

> <PUBCHEM_SHAPE_SELFOVERLAP>
683.699

> <PUBCHEM_SHAPE_VOLUME>
189.8

> <PUBCHEM_COORDINATE_TYPE>
2
5
10

$$$$
