53683233
  -OEChem-11232109263D

 29 28  0     0  0  0  0  0  0999 V2000
   -2.6055    2.3130    0.5022 O   0  0  0  0  0  0  0  0  0  0  0  0
   -1.6278   -1.7982   -0.2337 C   0  0  0  0  0  0  0  0  0  0  0  0
   -1.8745   -0.3223    0.1021 C   0  0  0  0  0  0  0  0  0  0  0  0
   -0.3008   -2.3249    0.3229 C   0  0  0  0  0  0  0  0  0  0  0  0
   -3.1948    0.1882   -0.4678 C   0  0  0  0  0  0  0  0  0  0  0  0
    0.8967   -1.6324   -0.2606 C   0  0  0  0  0  0  0  0  0  0  0  0
    2.9967   -0.2683   -0.1135 C   0  0  0  0  0  0  0  0  0  0  0  0
    1.7907   -0.9476    0.4681 C   0  0  0  0  0  0  0  0  0  0  0  0
    3.0571    1.2264    0.2106 C   0  0  0  0  0  0  0  0  0  0  0  0
    4.2699    1.9232   -0.3899 C   0  0  0  0  0  0  0  0  0  0  0  0
   -3.4077    1.6430   -0.1405 C   0  0  0  0  0  0  0  0  0  0  0  0
   -2.4454   -2.4030    0.1772 H   0  0  0  0  0  0  0  0  0  0  0  0
   -1.6498   -1.9343   -1.3223 H   0  0  0  0  0  0  0  0  0  0  0  0
   -1.8666   -0.1926    1.1918 H   0  0  0  0  0  0  0  0  0  0  0  0
   -1.0567    0.2927   -0.2929 H   0  0  0  0  0  0  0  0  0  0  0  0
   -0.2220   -3.3943    0.0929 H   0  0  0  0  0  0  0  0  0  0  0  0
   -0.3075   -2.2408    1.4166 H   0  0  0  0  0  0  0  0  0  0  0  0
   -4.0371   -0.3760   -0.0542 H   0  0  0  0  0  0  0  0  0  0  0  0
   -3.2104    0.0849   -1.5577 H   0  0  0  0  0  0  0  0  0  0  0  0
    1.0312   -1.7115   -1.3365 H   0  0  0  0  0  0  0  0  0  0  0  0
    3.0266   -0.4029   -1.2019 H   0  0  0  0  0  0  0  0  0  0  0  0
    3.8916   -0.7597    0.2875 H   0  0  0  0  0  0  0  0  0  0  0  0
    1.6621   -0.8795    1.5455 H   0  0  0  0  0  0  0  0  0  0  0  0
    3.0713    1.3674    1.2985 H   0  0  0  0  0  0  0  0  0  0  0  0
    2.1492    1.7188   -0.1594 H   0  0  0  0  0  0  0  0  0  0  0  0
    4.2668    1.8402   -1.4813 H   0  0  0  0  0  0  0  0  0  0  0  0
    4.2660    2.9859   -0.1284 H   0  0  0  0  0  0  0  0  0  0  0  0
    5.1985    1.4823   -0.0140 H   0  0  0  0  0  0  0  0  0  0  0  0
   -4.3452    2.0844   -0.5188 H   0  0  0  0  0  0  0  0  0  0  0  0
  1 11  2  0  0  0  0
  2  3  1  0  0  0  0
  2  4  1  0  0  0  0
  2 12  1  0  0  0  0
  2 13  1  0  0  0  0
  3  5  1  0  0  0  0
  3 14  1  0  0  0  0
  3 15  1  0  0  0  0
  4  6  1  0  0  0  0
  4 16  1  0  0  0  0
  4 17  1  0  0  0  0
  5 11  1  0  0  0  0
  5 18  1  0  0  0  0
  5 19  1  0  0  0  0
  6  8  2  3  0  0  0
  6 20  1  0  0  0  0
  7  8  1  0  0  0  0
  7  9  1  0  0  0  0
  7 21  1  0  0  0  0
  7 22  1  0  0  0  0
  8 23  1  0  0  0  0
  9 10  1  0  0  0  0
  9 24  1  0  0  0  0
  9 25  1  0  0  0  0
 10 26  1  0  0  0  0
 10 27  1  0  0  0  0
 10 28  1  0  0  0  0
 11 29  1  0  0  0  0
M  END
> <PUBCHEM_COMPOUND_CID>
53683233

> <PUBCHEM_CONFORMER_RMSD>
0.8

> <PUBCHEM_CONFORMER_DIVERSEORDER>
1
67
76
112
121
36
5
107
38
117
9
53
35
120
99
41
78
56
101
2
14
98
64
88
42
16
111
30
75
34
103
25
106
4
77
89
48
43
105
6
7
87
83
10
116
31
45
52
40
93
11
94
37
32
65
47
29
68
96
85
82
70
95
3
59
110
50
100
84
51
18
71
114
81
13
8
109
22
122
90
19
62
46
118
21
20
119
44
27
92
115
60
49
86
73
33
24
26
97
54
17
57
63
61
58
23
104
66
15
69
80
91
113
108
12
102
72
28
79
39
55
74

> <PUBCHEM_MMFF94_PARTIAL_CHARGES>
10
1 -0.57
11 0.45
20 0.15
23 0.15
29 0.06
4 0.14
5 0.06
6 -0.29
7 0.14
8 -0.29

> <PUBCHEM_EFFECTIVE_ROTOR_COUNT>
7

> <PUBCHEM_PHARMACOPHORE_FEATURES>
3
1 1 acceptor
1 10 hydrophobe
5 2 3 4 5 6 hydrophobe

> <PUBCHEM_HEAVY_ATOM_COUNT>
11

> <PUBCHEM_ATOM_DEF_STEREO_COUNT>
0

> <PUBCHEM_ATOM_UDEF_STEREO_COUNT>
0

> <PUBCHEM_BOND_DEF_STEREO_COUNT>
0

> <PUBCHEM_BOND_UDEF_STEREO_COUNT>
1

> <PUBCHEM_ISOTOPIC_ATOM_COUNT>
0

> <PUBCHEM_COMPONENT_COUNT>
1

> <PUBCHEM_CACTVS_TAUTO_COUNT>
2

> <PUBCHEM_CONFORMER_ID>
0333242100000001

> <PUBCHEM_MMFF94_ENERGY>
-0.9582

> <PUBCHEM_FEATURE_SELFOVERLAP>
15.223

> <PUBCHEM_SHAPE_FINGERPRINT>
10149128 111 18410008810484169791
10149128 76 18411418388622785274
10681291 71 18339376196343063449
122479 349 18335139795236806106
13618510 140 18410572868497150309
14123255 52 18409166597457017972
14123260 362 18261683674285493524
15775835 57 18335138708826104620
1741750 31 18410291449687311026
17834072 32 18410014346723855804
18342897 96 18342171206435151070
20304884 271 18412262830727505219
20539926 19 18334585667415307828
20605781 55 18409166588919928291
20621476 13 17758385280187808925
20653085 51 18340211803716094203
20671657 1 18264770956680949686
20767249 271 18410852187706103548
20767249 462 18408316692269942188
20871998 22 9511167547673775927
21524375 3 18410003312868450315
22182937 141 18339654420198011641
22485316 2 9295282846127721687
22959321 54 18409726270582384063
23590187 32 18409171051575643260
23590187 71 18341329015167646224
8050 44 18263074423398045245
8199 26 18409730690109162300

> <PUBCHEM_SHAPE_MULTIPOLES>
220.51
7.47
2.85
0.71
3.43
0.27
0
6.39
-0.71
-0.72
0.16
0
0.01
-0.4

> <PUBCHEM_SHAPE_SELFOVERLAP>
398.132

> <PUBCHEM_SHAPE_VOLUME>
140.9

> <PUBCHEM_COORDINATE_TYPE>
2
5
10

$$$$
