5368064
  -OEChem-11232108473D

 33 32  0     0  0  0  0  0  0999 V2000
   -4.8159    0.7370    0.6205 O   0  0  0  0  0  0  0  0  0  0  0  0
   -4.2399   -0.3944   -1.3099 O   0  0  0  0  0  0  0  0  0  0  0  0
    3.2818    0.1986   -0.3212 C   0  0  0  0  0  0  0  0  0  0  0  0
    2.1668   -0.4546    0.4999 C   0  0  0  0  0  0  0  0  0  0  0  0
    4.6735    0.0234    0.2932 C   0  0  0  0  0  0  0  0  0  0  0  0
    0.8103   -0.3090   -0.1984 C   0  0  0  0  0  0  0  0  0  0  0  0
    5.7952    0.6123   -0.5632 C   0  0  0  0  0  0  0  0  0  0  0  0
   -0.3418   -0.9746    0.5616 C   0  0  0  0  0  0  0  0  0  0  0  0
    7.1530    0.4245    0.0966 C   0  0  0  0  0  0  0  0  0  0  0  0
   -1.6817   -0.7684   -0.0865 C   0  0  0  0  0  0  0  0  0  0  0  0
   -2.6907   -0.1139    0.5042 C   0  0  0  0  0  0  0  0  0  0  0  0
   -3.9839    0.0372   -0.1971 C   0  0  0  0  0  0  0  0  0  0  0  0
   -6.1267    0.9820    0.1002 C   0  0  0  0  0  0  0  0  0  0  0  0
    3.0707    1.2691   -0.4352 H   0  0  0  0  0  0  0  0  0  0  0  0
    3.2843   -0.2325   -1.3303 H   0  0  0  0  0  0  0  0  0  0  0  0
    2.1233    0.0048    1.4944 H   0  0  0  0  0  0  0  0  0  0  0  0
    2.3904   -1.5185    0.6427 H   0  0  0  0  0  0  0  0  0  0  0  0
    4.8644   -1.0459    0.4476 H   0  0  0  0  0  0  0  0  0  0  0  0
    4.6868    0.4929    1.2847 H   0  0  0  0  0  0  0  0  0  0  0  0
    0.8721   -0.7406   -1.2058 H   0  0  0  0  0  0  0  0  0  0  0  0
    0.5891    0.7585   -0.3279 H   0  0  0  0  0  0  0  0  0  0  0  0
    5.6163    1.6816   -0.7241 H   0  0  0  0  0  0  0  0  0  0  0  0
    5.8017    0.1316   -1.5482 H   0  0  0  0  0  0  0  0  0  0  0  0
   -0.1552   -2.0534    0.6289 H   0  0  0  0  0  0  0  0  0  0  0  0
   -0.3555   -0.5979    1.5921 H   0  0  0  0  0  0  0  0  0  0  0  0
    7.3742   -0.6374    0.2438 H   0  0  0  0  0  0  0  0  0  0  0  0
    7.1878    0.9215    1.0713 H   0  0  0  0  0  0  0  0  0  0  0  0
    7.9412    0.8519   -0.5310 H   0  0  0  0  0  0  0  0  0  0  0  0
   -1.8048   -1.1925   -1.0798 H   0  0  0  0  0  0  0  0  0  0  0  0
   -2.5845    0.3121    1.4961 H   0  0  0  0  0  0  0  0  0  0  0  0
   -6.6892    1.5476    0.8478 H   0  0  0  0  0  0  0  0  0  0  0  0
   -6.6431    0.0356   -0.0861 H   0  0  0  0  0  0  0  0  0  0  0  0
   -6.0652    1.5761   -0.8167 H   0  0  0  0  0  0  0  0  0  0  0  0
  1 12  1  0  0  0  0
  1 13  1  0  0  0  0
  2 12  2  0  0  0  0
  3  4  1  0  0  0  0
  3  5  1  0  0  0  0
  3 14  1  0  0  0  0
  3 15  1  0  0  0  0
  4  6  1  0  0  0  0
  4 16  1  0  0  0  0
  4 17  1  0  0  0  0
  5  7  1  0  0  0  0
  5 18  1  0  0  0  0
  5 19  1  0  0  0  0
  6  8  1  0  0  0  0
  6 20  1  0  0  0  0
  6 21  1  0  0  0  0
  7  9  1  0  0  0  0
  7 22  1  0  0  0  0
  7 23  1  0  0  0  0
  8 10  1  0  0  0  0
  8 24  1  0  0  0  0
  8 25  1  0  0  0  0
  9 26  1  0  0  0  0
  9 27  1  0  0  0  0
  9 28  1  0  0  0  0
 10 11  2  0  0  0  0
 10 29  1  0  0  0  0
 11 12  1  0  0  0  0
 11 30  1  0  0  0  0
 13 31  1  0  0  0  0
 13 32  1  0  0  0  0
 13 33  1  0  0  0  0
M  END
> <PUBCHEM_COMPOUND_CID>
5368064

> <PUBCHEM_CONFORMER_RMSD>
0.8

> <PUBCHEM_CONFORMER_DIVERSEORDER>
1
129
73
46
18
122
9
75
120
124
77
95
87
81
49
17
119
48
114
21
64
88
11
127
53
118
37
100
40
45
8
123
56
12
26
134
10
27
55
39
125
2
31
80
133
35
131
92
57
72
108
4
54
14
23
59
16
32
111
30
130
126
67
99
42
36
121
38
33
28
3
104
94
128
85
117
34
69
74
66
115
58
71
63
22
110
61
68
79
106
60
103
43
5
52
109
25
70
13
82
98
116
89
51
62
76
15
107
29
47
101
78
6
102
19
44
65
96
91
83
20
90
50
93
84
132
105
86
24
113
112
7
41
97

> <PUBCHEM_MMFF94_PARTIAL_CHARGES>
9
1 -0.43
10 -0.29
11 -0.14
12 0.71
13 0.28
2 -0.57
29 0.15
30 0.15
8 0.14

> <PUBCHEM_EFFECTIVE_ROTOR_COUNT>
8

> <PUBCHEM_PHARMACOPHORE_FEATURES>
2
1 2 acceptor
1 9 hydrophobe

> <PUBCHEM_HEAVY_ATOM_COUNT>
13

> <PUBCHEM_ATOM_DEF_STEREO_COUNT>
0

> <PUBCHEM_ATOM_UDEF_STEREO_COUNT>
0

> <PUBCHEM_BOND_DEF_STEREO_COUNT>
1

> <PUBCHEM_BOND_UDEF_STEREO_COUNT>
0

> <PUBCHEM_ISOTOPIC_ATOM_COUNT>
0

> <PUBCHEM_COMPONENT_COUNT>
1

> <PUBCHEM_CACTVS_TAUTO_COUNT>
1

> <PUBCHEM_CONFORMER_ID>
0051E90000000001

> <PUBCHEM_MMFF94_ENERGY>
7.0639

> <PUBCHEM_FEATURE_SELFOVERLAP>
10.148

> <PUBCHEM_SHAPE_FINGERPRINT>
100836 57 18187368731251529678
10354089 29 16226048899262300396
10968037 39 12967128315433019781
117890 112 18410012148269864184
12091667 2 18131915978853933667
12714333 28 17989488519936499746
13288520 33 9799689295044625595
13533116 47 18337947897418139690
13862211 1 11312060937511875260
13964095 4 13758079563427803793
14123238 8 10807938167627830926
14123256 10 14045742616674367668
1420 363 11743842478128398668
14251718 22 16200152114641089670
14251764 18 17530685432768254939
14251764 46 17967252000944711723
14729087 3 18410290298372584872
15048467 5 18335139800016920584
15242439 84 15913605069026678531
15501527 16 17530684329220070534
17834072 33 13901904540531833120
17834072 8 15769773550449963229
17834076 25 18410293609702199048
187816 3 15841554076052986042
20281389 69 17966967227686702164
20526848 3 18334863804917735468
20621476 66 18335144180445959461
20621476 8 18335139757336156246
20645477 56 17603299366905298767
20645477 70 17059787615918240206
20767249 13 10952048952818921995
20767249 213 18259987076161627153
21130983 4 17894635863853766716
22224240 67 15574435444256823033
23402539 116 17988922283937529708
23402655 69 17775567503160683243
23559900 14 15410883085420203554
300161 21 18131348614201724190
351380 3 10303815363162924588
42788 4 15647051577786153174
449060 50 17095242509925685771

> <PUBCHEM_SHAPE_MULTIPOLES>
255.8
17.92
0.92
0.83
10.14
0.04
0.11
-6.91
-0.64
-0.25
-0.05
-0.56
-0.01
-0.41

> <PUBCHEM_SHAPE_SELFOVERLAP>
468.672

> <PUBCHEM_SHAPE_VOLUME>
162.9

> <PUBCHEM_COORDINATE_TYPE>
2
5
10

$$$$
