536987
  -OEChem-11232108423D

 39 38  0     1  0  0  0  0  0999 V2000
    3.9617   -1.7168    1.2985 S   0  0  0  0  0  0  0  0  0  0  0  0
   -0.0677    0.0078   -0.1502 O   0  0  0  0  0  0  0  0  0  0  0  0
   -1.4373   -1.8222   -0.4590 O   0  0  0  0  0  0  0  0  0  0  0  0
    3.6498   -0.7585   -0.2314 C   0  0  2  0  0  0  0  0  0  0  0  0
    4.8571    0.1326   -0.5855 C   0  0  0  0  0  0  0  0  0  0  0  0
    2.3358    0.0316   -0.1336 C   0  0  0  0  0  0  0  0  0  0  0  0
    5.1856    1.2505    0.4107 C   0  0  0  0  0  0  0  0  0  0  0  0
    1.0846   -0.8307   -0.2823 C   0  0  0  0  0  0  0  0  0  0  0  0
   -3.7753   -0.2387   -0.0784 C   0  0  0  0  0  0  0  0  0  0  0  0
   -4.8839    0.8010    0.1120 C   0  0  0  0  0  0  0  0  0  0  0  0
   -2.3801    0.3855   -0.0653 C   0  0  0  0  0  0  0  0  0  0  0  0
   -6.2635    0.1424    0.1281 C   0  0  0  0  0  0  0  0  0  0  0  0
    6.3716    2.0783   -0.0641 C   0  0  0  0  0  0  0  0  0  0  0  0
   -1.2726   -0.6263   -0.2611 C   0  0  0  0  0  0  0  0  0  0  0  0
   -7.3657    1.1633    0.3616 C   0  0  0  0  0  0  0  0  0  0  0  0
    3.5516   -1.4959   -1.0375 H   0  0  0  0  0  0  0  0  0  0  0  0
    4.6676    0.5867   -1.5674 H   0  0  0  0  0  0  0  0  0  0  0  0
    5.7443   -0.5011   -0.7189 H   0  0  0  0  0  0  0  0  0  0  0  0
    2.2821    0.6019    0.8031 H   0  0  0  0  0  0  0  0  0  0  0  0
    2.3063    0.7886   -0.9291 H   0  0  0  0  0  0  0  0  0  0  0  0
    5.4221    0.8353    1.3957 H   0  0  0  0  0  0  0  0  0  0  0  0
    4.3221    1.9130    0.5342 H   0  0  0  0  0  0  0  0  0  0  0  0
    1.0735   -1.3093   -1.2685 H   0  0  0  0  0  0  0  0  0  0  0  0
    1.0511   -1.6023    0.4944 H   0  0  0  0  0  0  0  0  0  0  0  0
   -3.8406   -0.9951    0.7140 H   0  0  0  0  0  0  0  0  0  0  0  0
   -3.9298   -0.7681   -1.0271 H   0  0  0  0  0  0  0  0  0  0  0  0
   -4.8365    1.5416   -0.6955 H   0  0  0  0  0  0  0  0  0  0  0  0
   -4.7217    1.3382    1.0543 H   0  0  0  0  0  0  0  0  0  0  0  0
   -2.2167    0.8854    0.8963 H   0  0  0  0  0  0  0  0  0  0  0  0
   -2.3030    1.1284   -0.8673 H   0  0  0  0  0  0  0  0  0  0  0  0
   -6.4420   -0.3708   -0.8239 H   0  0  0  0  0  0  0  0  0  0  0  0
   -6.3055   -0.6161    0.9185 H   0  0  0  0  0  0  0  0  0  0  0  0
    6.1619    2.5462   -1.0313 H   0  0  0  0  0  0  0  0  0  0  0  0
    7.2668    1.4570   -0.1687 H   0  0  0  0  0  0  0  0  0  0  0  0
    6.5916    2.8724    0.6563 H   0  0  0  0  0  0  0  0  0  0  0  0
    5.0464   -2.3681    0.8537 H   0  0  0  0  0  0  0  0  0  0  0  0
   -7.2344    1.6696    1.3232 H   0  0  0  0  0  0  0  0  0  0  0  0
   -7.3717    1.9213   -0.4282 H   0  0  0  0  0  0  0  0  0  0  0  0
   -8.3433    0.6711    0.3676 H   0  0  0  0  0  0  0  0  0  0  0  0
  1  4  1  0  0  0  0
  1 36  1  0  0  0  0
  2  8  1  0  0  0  0
  2 14  1  0  0  0  0
  3 14  2  0  0  0  0
  4  5  1  0  0  0  0
  4  6  1  0  0  0  0
  4 16  1  0  0  0  0
  5  7  1  0  0  0  0
  5 17  1  0  0  0  0
  5 18  1  0  0  0  0
  6  8  1  0  0  0  0
  6 19  1  0  0  0  0
  6 20  1  0  0  0  0
  7 13  1  0  0  0  0
  7 21  1  0  0  0  0
  7 22  1  0  0  0  0
  8 23  1  0  0  0  0
  8 24  1  0  0  0  0
  9 10  1  0  0  0  0
  9 11  1  0  0  0  0
  9 25  1  0  0  0  0
  9 26  1  0  0  0  0
 10 12  1  0  0  0  0
 10 27  1  0  0  0  0
 10 28  1  0  0  0  0
 11 14  1  0  0  0  0
 11 29  1  0  0  0  0
 11 30  1  0  0  0  0
 12 15  1  0  0  0  0
 12 31  1  0  0  0  0
 12 32  1  0  0  0  0
 13 33  1  0  0  0  0
 13 34  1  0  0  0  0
 13 35  1  0  0  0  0
 15 37  1  0  0  0  0
 15 38  1  0  0  0  0
 15 39  1  0  0  0  0
M  END
> <PUBCHEM_COMPOUND_CID>
536987

> <PUBCHEM_CONFORMER_RMSD>
1.2

> <PUBCHEM_CONFORMER_DIVERSEORDER>
1
58
55
7
35
5
10
47
28
59
46
45
54
26
16
13
39
49
21
17
31
43
56
6
52
51
8
9
27
40
25
14
42
38
60
18
33
61
11
2
41
36
15
19
53
48
34
22
4
12
29
50
37
30
62
57
20
24
44
23
3
32

> <PUBCHEM_MMFF94_PARTIAL_CHARGES>
8
1 -0.41
11 0.06
14 0.66
2 -0.43
3 -0.57
36 0.18
4 0.23
8 0.28

> <PUBCHEM_EFFECTIVE_ROTOR_COUNT>
10

> <PUBCHEM_PHARMACOPHORE_FEATURES>
4
1 13 hydrophobe
1 15 hydrophobe
1 3 acceptor
4 9 10 11 12 hydrophobe

> <PUBCHEM_HEAVY_ATOM_COUNT>
15

> <PUBCHEM_ATOM_DEF_STEREO_COUNT>
0

> <PUBCHEM_ATOM_UDEF_STEREO_COUNT>
1

> <PUBCHEM_BOND_DEF_STEREO_COUNT>
0

> <PUBCHEM_BOND_UDEF_STEREO_COUNT>
0

> <PUBCHEM_ISOTOPIC_ATOM_COUNT>
0

> <PUBCHEM_COMPONENT_COUNT>
1

> <PUBCHEM_CACTVS_TAUTO_COUNT>
1

> <PUBCHEM_CONFORMER_ID>
0008319B00000001

> <PUBCHEM_MMFF94_ENERGY>
8.6783

> <PUBCHEM_FEATURE_SELFOVERLAP>
20.298

> <PUBCHEM_SHAPE_FINGERPRINT>
10354089 29 18040719168973935572
117890 112 18413671318060251268
125118 31 18339924818802881481
12596602 18 18259987063482402379
13167372 99 18339925896728643089
13533116 47 17822853070139370658
13668630 136 10592043553197615613
13955234 65 18114454562386083778
1420 363 13984669131456170067
14251732 16 18336548312956115587
14251752 14 9727643786976356739
14251757 52 18411417298033791681
14251764 18 18411416237540346295
14251764 46 18060701671970051550
15048467 5 18341895212021241772
15501527 16 18413109472398598287
17834072 8 13614521865716412724
17834076 25 17418093208700927054
20281389 69 18334013852965930885
20526848 3 18342179981090415761
20621476 66 18272374166013387021
20735858 18 15068340124748376689
20767249 213 18413390942848330445
21130983 4 18343587343484459241
21150785 3 14117799141592603584
212847 35 18273209781701838130
22224240 67 18186522103694440459
22896161 15 18340769334248605711
23035841 295 8070026671275329853
23402539 116 17988917869433803687
300161 21 18335698355781110662
33532 11 8574713490334552073
42788 4 18413109442154531127
4340502 62 17167860872579882434
4463277 17 18413390925964074701
5104073 3 17459457867067551128
5374978 207 18260542299822245986
59755656 215 12247688161975824965
6438161 24 11743847928574351252

> <PUBCHEM_SHAPE_MULTIPOLES>
300.8
19.08
1.68
0.82
17.17
0.08
-0.14
10.49
-2.79
-2.59
-0.26
-0.56
-0.21
-0.79

> <PUBCHEM_SHAPE_SELFOVERLAP>
540.45

> <PUBCHEM_SHAPE_VOLUME>
194.7

> <PUBCHEM_COORDINATE_TYPE>
2
5
10

$$$$
