5369326
  -OEChem-11232108433D

 19 18  0     0  0  0  0  0  0999 V2000
    1.9805   -0.6920   -0.5929 S   0  0  0  0  0  0  0  0  0  0  0  0
   -1.2726   -0.0963    0.4225 O   0  0  0  0  0  0  0  0  0  0  0  0
   -0.6744    1.5734   -1.0581 O   0  0  0  0  0  0  0  0  0  0  0  0
   -2.4172   -0.4115   -0.3773 C   0  0  0  0  0  0  0  0  0  0  0  0
   -3.1728   -1.5520    0.2708 C   0  0  0  0  0  0  0  0  0  0  0  0
   -0.4951    0.9180   -0.0438 C   0  0  0  0  0  0  0  0  0  0  0  0
    0.6260    1.0957    0.9058 C   0  0  0  0  0  0  0  0  0  0  0  0
    1.7610    0.4099    0.7231 C   0  0  0  0  0  0  0  0  0  0  0  0
    3.6646   -1.2452   -0.2502 C   0  0  0  0  0  0  0  0  0  0  0  0
   -3.0656    0.4688   -0.4498 H   0  0  0  0  0  0  0  0  0  0  0  0
   -2.0908   -0.7065   -1.3809 H   0  0  0  0  0  0  0  0  0  0  0  0
   -4.0559   -1.8196   -0.3160 H   0  0  0  0  0  0  0  0  0  0  0  0
   -2.5310   -2.4340    0.3665 H   0  0  0  0  0  0  0  0  0  0  0  0
   -3.4900   -1.2784    1.2825 H   0  0  0  0  0  0  0  0  0  0  0  0
    0.4932    1.7845    1.7308 H   0  0  0  0  0  0  0  0  0  0  0  0
    2.5753    0.5496    1.4269 H   0  0  0  0  0  0  0  0  0  0  0  0
    3.7189   -1.7291    0.7292 H   0  0  0  0  0  0  0  0  0  0  0  0
    4.3596   -0.4012   -0.2758 H   0  0  0  0  0  0  0  0  0  0  0  0
    3.9690   -1.9683   -1.0115 H   0  0  0  0  0  0  0  0  0  0  0  0
  1  8  1  0  0  0  0
  1  9  1  0  0  0  0
  2  4  1  0  0  0  0
  2  6  1  0  0  0  0
  3  6  2  0  0  0  0
  4  5  1  0  0  0  0
  4 10  1  0  0  0  0
  4 11  1  0  0  0  0
  5 12  1  0  0  0  0
  5 13  1  0  0  0  0
  5 14  1  0  0  0  0
  6  7  1  0  0  0  0
  7  8  2  0  0  0  0
  7 15  1  0  0  0  0
  8 16  1  0  0  0  0
  9 17  1  0  0  0  0
  9 18  1  0  0  0  0
  9 19  1  0  0  0  0
M  END
> <PUBCHEM_COMPOUND_CID>
5369326

> <PUBCHEM_CONFORMER_RMSD>
0.6

> <PUBCHEM_CONFORMER_DIVERSEORDER>
1
22
11
47
39
41
25
20
54
2
3
52
53
31
14
34
36
12
38
45
17
42
4
40
6
10
43
35
46
51
8
48
21
44
5
19
30
49
7
16
23
32
37
50
15
13
18
26
9
24
29
27
28
33

> <PUBCHEM_MMFF94_PARTIAL_CHARGES>
10
1 -0.33
15 0.15
16 0.15
2 -0.43
3 -0.57
4 0.28
6 0.71
7 -0.14
8 -0.05
9 0.23

> <PUBCHEM_EFFECTIVE_ROTOR_COUNT>
4

> <PUBCHEM_PHARMACOPHORE_FEATURES>
2
1 3 acceptor
1 9 hydrophobe

> <PUBCHEM_HEAVY_ATOM_COUNT>
9

> <PUBCHEM_ATOM_DEF_STEREO_COUNT>
0

> <PUBCHEM_ATOM_UDEF_STEREO_COUNT>
0

> <PUBCHEM_BOND_DEF_STEREO_COUNT>
1

> <PUBCHEM_BOND_UDEF_STEREO_COUNT>
0

> <PUBCHEM_ISOTOPIC_ATOM_COUNT>
0

> <PUBCHEM_COMPONENT_COUNT>
1

> <PUBCHEM_CACTVS_TAUTO_COUNT>
1

> <PUBCHEM_CONFORMER_ID>
0051EDEE00000001

> <PUBCHEM_MMFF94_ENERGY>
16.2772

> <PUBCHEM_FEATURE_SELFOVERLAP>
10.148

> <PUBCHEM_SHAPE_FINGERPRINT>
10149128 76 7997973470361217702
12897270 3 17749112175338476350
14390081 3 9222969066365695275
20201158 50 18272087154286119126
20281407 28 18411703170893125482
20653085 51 11819279936102004730
20711978 78 17845919844657978712
20711985 344 18115296770527170441
20871998 22 18337106873241807897
21061003 4 17561079168671245106
29004967 10 17988915695579198944
58734985 102 17822860912506722132

> <PUBCHEM_SHAPE_MULTIPOLES>
177.33
5.15
1.62
0.94
0.53
0.04
0.07
3.9
-0.03
-0.15
0.05
0.03
-0.23
0.58

> <PUBCHEM_SHAPE_SELFOVERLAP>
316.254

> <PUBCHEM_SHAPE_VOLUME>
116

> <PUBCHEM_COORDINATE_TYPE>
2
5
10

$$$$
