5369325
  -OEChem-11232108543D

 19 18  0     0  0  0  0  0  0999 V2000
   -3.2222    0.9494   -0.0001 S   0  0  0  0  0  0  0  0  0  0  0  0
    1.7314    0.4174   -0.0001 O   0  0  0  0  0  0  0  0  0  0  0  0
    0.5919   -1.5924    0.0000 O   0  0  0  0  0  0  0  0  0  0  0  0
    2.9824   -0.2786    0.0001 C   0  0  0  0  0  0  0  0  0  0  0  0
    4.1092    0.7324    0.0001 C   0  0  0  0  0  0  0  0  0  0  0  0
    0.6235   -0.3720   -0.0002 C   0  0  0  0  0  0  0  0  0  0  0  0
   -0.5597    0.5171    0.0000 C   0  0  0  0  0  0  0  0  0  0  0  0
   -1.7870   -0.0171    0.0001 C   0  0  0  0  0  0  0  0  0  0  0  0
   -4.4695   -0.3560    0.0000 C   0  0  0  0  0  0  0  0  0  0  0  0
    3.0497   -0.9082    0.8943 H   0  0  0  0  0  0  0  0  0  0  0  0
    3.0499   -0.9085   -0.8941 H   0  0  0  0  0  0  0  0  0  0  0  0
    5.0823    0.2334    0.0002 H   0  0  0  0  0  0  0  0  0  0  0  0
    4.0446    1.3813   -0.8795 H   0  0  0  0  0  0  0  0  0  0  0  0
    4.0445    1.3816    0.8796 H   0  0  0  0  0  0  0  0  0  0  0  0
   -0.3975    1.5903    0.0000 H   0  0  0  0  0  0  0  0  0  0  0  0
   -1.9137   -1.0952    0.0002 H   0  0  0  0  0  0  0  0  0  0  0  0
   -4.3726   -0.9810    0.8923 H   0  0  0  0  0  0  0  0  0  0  0  0
   -4.3726   -0.9812   -0.8921 H   0  0  0  0  0  0  0  0  0  0  0  0
   -5.4650    0.0958   -0.0001 H   0  0  0  0  0  0  0  0  0  0  0  0
  1  8  1  0  0  0  0
  1  9  1  0  0  0  0
  2  4  1  0  0  0  0
  2  6  1  0  0  0  0
  3  6  2  0  0  0  0
  4  5  1  0  0  0  0
  4 10  1  0  0  0  0
  4 11  1  0  0  0  0
  5 12  1  0  0  0  0
  5 13  1  0  0  0  0
  5 14  1  0  0  0  0
  6  7  1  0  0  0  0
  7  8  2  0  0  0  0
  7 15  1  0  0  0  0
  8 16  1  0  0  0  0
  9 17  1  0  0  0  0
  9 18  1  0  0  0  0
  9 19  1  0  0  0  0
M  END
> <PUBCHEM_COMPOUND_CID>
5369325

> <PUBCHEM_CONFORMER_RMSD>
0.6

> <PUBCHEM_CONFORMER_DIVERSEORDER>
1
31
7
25
15
17
12
33
2
16
20
22
10
18
21
3
27
13
9
28
30
5
29
32
19
23
24
14
4
6
26
11
8

> <PUBCHEM_MMFF94_PARTIAL_CHARGES>
10
1 -0.33
15 0.15
16 0.15
2 -0.43
3 -0.57
4 0.28
6 0.71
7 -0.14
8 -0.05
9 0.23

> <PUBCHEM_EFFECTIVE_ROTOR_COUNT>
4

> <PUBCHEM_PHARMACOPHORE_FEATURES>
2
1 3 acceptor
1 9 hydrophobe

> <PUBCHEM_HEAVY_ATOM_COUNT>
9

> <PUBCHEM_ATOM_DEF_STEREO_COUNT>
0

> <PUBCHEM_ATOM_UDEF_STEREO_COUNT>
0

> <PUBCHEM_BOND_DEF_STEREO_COUNT>
1

> <PUBCHEM_BOND_UDEF_STEREO_COUNT>
0

> <PUBCHEM_ISOTOPIC_ATOM_COUNT>
0

> <PUBCHEM_COMPONENT_COUNT>
1

> <PUBCHEM_CACTVS_TAUTO_COUNT>
1

> <PUBCHEM_CONFORMER_ID>
0051EDED00000001

> <PUBCHEM_MMFF94_ENERGY>
9.2336

> <PUBCHEM_FEATURE_SELFOVERLAP>
10.148

> <PUBCHEM_SHAPE_FINGERPRINT>
10219947 1 17894915113557272668
11062470 55 16153427246715786061
124424 183 9655576310118161397
12932764 1 15984525716675808801
14325111 11 18410856538312665632
170605 34 18410856529722951930
20645477 70 17917155992241923846
20719005 15 18410573985167307873
21293036 1 18131070441395286288
23402539 116 16805595989184160047
23402655 69 18342168926514288285
3248919 1 15213878008230429881
366044 4 18411136952775618434

> <PUBCHEM_SHAPE_MULTIPOLES>
177.33
8.06
1.08
0.61
0.96
0.18
0
-1.29
0
0
0
0.06
-0.02
0

> <PUBCHEM_SHAPE_SELFOVERLAP>
314.756

> <PUBCHEM_SHAPE_VOLUME>
116.7

> <PUBCHEM_COORDINATE_TYPE>
2
5
10

$$$$
