5371084
  -OEChem-11232109143D

 37 37  0     1  0  0  0  0  0999 V2000
   -2.9444   -0.0065    1.4202 O   0  0  0  0  0  0  0  0  0  0  0  0
    1.7829    1.1515   -0.2712 C   0  0  0  0  0  0  0  0  0  0  0  0
    0.8945   -0.1032   -0.5876 C   0  0  1  0  0  0  0  0  0  0  0  0
    2.3852    1.0086    1.1466 C   0  0  0  0  0  0  0  0  0  0  0  0
    3.1936   -0.2791    1.3285 C   0  0  0  0  0  0  0  0  0  0  0  0
    1.6004   -1.4115   -0.2550 C   0  0  0  0  0  0  0  0  0  0  0  0
    2.9164    1.2690   -1.3203 C   0  0  0  0  0  0  0  0  0  0  0  0
    0.9731    2.4645   -0.3425 C   0  0  0  0  0  0  0  0  0  0  0  0
    2.6277   -1.4681    0.6116 C   0  0  0  0  0  0  0  0  0  0  0  0
   -0.4430   -0.0704    0.1055 C   0  0  0  0  0  0  0  0  0  0  0  0
    1.1042   -2.6454   -0.9571 C   0  0  0  0  0  0  0  0  0  0  0  0
   -1.6105   -0.0353   -0.5493 C   0  0  0  0  0  0  0  0  0  0  0  0
   -2.9036   -0.0029    0.1929 C   0  0  0  0  0  0  0  0  0  0  0  0
   -4.1503    0.0362   -0.6722 C   0  0  0  0  0  0  0  0  0  0  0  0
   -5.4263    0.0925    0.1498 C   0  0  0  0  0  0  0  0  0  0  0  0
    0.7236   -0.0953   -1.6746 H   0  0  0  0  0  0  0  0  0  0  0  0
    1.5810    1.0258    1.8939 H   0  0  0  0  0  0  0  0  0  0  0  0
    3.0268    1.8679    1.3808 H   0  0  0  0  0  0  0  0  0  0  0  0
    3.2694   -0.5040    2.3986 H   0  0  0  0  0  0  0  0  0  0  0  0
    4.2180   -0.1207    0.9701 H   0  0  0  0  0  0  0  0  0  0  0  0
    3.5799    2.1098   -1.0873 H   0  0  0  0  0  0  0  0  0  0  0  0
    3.5368    0.3700   -1.3785 H   0  0  0  0  0  0  0  0  0  0  0  0
    2.5037    1.4422   -2.3210 H   0  0  0  0  0  0  0  0  0  0  0  0
    1.6266    3.3355   -0.2150 H   0  0  0  0  0  0  0  0  0  0  0  0
    0.4708    2.5657   -1.3112 H   0  0  0  0  0  0  0  0  0  0  0  0
    0.2118    2.5215    0.4427 H   0  0  0  0  0  0  0  0  0  0  0  0
    3.1114   -2.4211    0.8109 H   0  0  0  0  0  0  0  0  0  0  0  0
   -0.4336   -0.0808    1.1932 H   0  0  0  0  0  0  0  0  0  0  0  0
    0.0629   -2.8508   -0.6903 H   0  0  0  0  0  0  0  0  0  0  0  0
    1.6925   -3.5318   -0.6971 H   0  0  0  0  0  0  0  0  0  0  0  0
    1.1669   -2.5148   -2.0424 H   0  0  0  0  0  0  0  0  0  0  0  0
   -1.6541   -0.0267   -1.6329 H   0  0  0  0  0  0  0  0  0  0  0  0
   -4.1638   -0.8605   -1.3013 H   0  0  0  0  0  0  0  0  0  0  0  0
   -4.0974    0.9197   -1.3177 H   0  0  0  0  0  0  0  0  0  0  0  0
   -5.5147   -0.7846    0.7994 H   0  0  0  0  0  0  0  0  0  0  0  0
   -6.3015    0.1212   -0.5067 H   0  0  0  0  0  0  0  0  0  0  0  0
   -5.4457    0.9840    0.7853 H   0  0  0  0  0  0  0  0  0  0  0  0
  1 13  2  0  0  0  0
  2  3  1  0  0  0  0
  2  4  1  0  0  0  0
  2  7  1  0  0  0  0
  2  8  1  0  0  0  0
  3  6  1  0  0  0  0
  3 10  1  0  0  0  0
  3 16  1  0  0  0  0
  4  5  1  0  0  0  0
  4 17  1  0  0  0  0
  4 18  1  0  0  0  0
  5  9  1  0  0  0  0
  5 19  1  0  0  0  0
  5 20  1  0  0  0  0
  6  9  2  0  0  0  0
  6 11  1  0  0  0  0
  7 21  1  0  0  0  0
  7 22  1  0  0  0  0
  7 23  1  0  0  0  0
  8 24  1  0  0  0  0
  8 25  1  0  0  0  0
  8 26  1  0  0  0  0
  9 27  1  0  0  0  0
 10 12  2  0  0  0  0
 10 28  1  0  0  0  0
 11 29  1  0  0  0  0
 11 30  1  0  0  0  0
 11 31  1  0  0  0  0
 12 13  1  0  0  0  0
 12 32  1  0  0  0  0
 13 14  1  0  0  0  0
 14 15  1  0  0  0  0
 14 33  1  0  0  0  0
 14 34  1  0  0  0  0
 15 35  1  0  0  0  0
 15 36  1  0  0  0  0
 15 37  1  0  0  0  0
M  END
> <PUBCHEM_COMPOUND_CID>
5371084

> <PUBCHEM_CONFORMER_RMSD>
0.6

> <PUBCHEM_CONFORMER_DIVERSEORDER>
1
37
40
50
38
18
31
25
22
35
43
11
28
34
15
53
39
17
32
47
36
30
5
26
23
46
3
41
44
59
42
24
20
7
8
27
49
19
29
12
54
16
56
9
13
58
2
52
6
4
57
10
14
51
48
45
55
21
33

> <PUBCHEM_MMFF94_PARTIAL_CHARGES>
13
1 -0.57
10 -0.29
11 0.14
12 -0.14
13 0.49
14 0.06
27 0.15
28 0.15
3 0.28
32 0.15
5 0.14
6 -0.28
9 -0.29

> <PUBCHEM_EFFECTIVE_ROTOR_COUNT>
3.8

> <PUBCHEM_PHARMACOPHORE_FEATURES>
4
1 1 acceptor
1 15 hydrophobe
3 2 7 8 hydrophobe
6 2 3 4 5 6 9 rings

> <PUBCHEM_HEAVY_ATOM_COUNT>
15

> <PUBCHEM_ATOM_DEF_STEREO_COUNT>
0

> <PUBCHEM_ATOM_UDEF_STEREO_COUNT>
1

> <PUBCHEM_BOND_DEF_STEREO_COUNT>
1

> <PUBCHEM_BOND_UDEF_STEREO_COUNT>
0

> <PUBCHEM_ISOTOPIC_ATOM_COUNT>
0

> <PUBCHEM_COMPONENT_COUNT>
1

> <PUBCHEM_CACTVS_TAUTO_COUNT>
5

> <PUBCHEM_CONFORMER_ID>
0051F4CC00000001

> <PUBCHEM_MMFF94_ENERGY>
23.7158

> <PUBCHEM_FEATURE_SELFOVERLAP>
20.297

> <PUBCHEM_SHAPE_FINGERPRINT>
10219947 1 18411129230297598866
10980938 120 18412547608755534765
116883 192 18120372051634284485
12251169 10 18335131012007476355
12346645 6 18409730677065862132
12423570 1 12563328453065112872
12616999 72 18334868237513421613
13134695 92 18261095366829364588
14251717 144 18412260623441479743
14252887 29 18338233760812099010
16945 1 18040702693695561862
18186145 218 17561368383237012805
19050596 39 18131345319935382439
20279233 1 17458350745105477035
20559304 39 18343303643329541369
20645477 70 18334295353580531103
20708731 107 18341058427964569222
20871998 22 18195244421346084166
21730867 7 18408045125640274159
2255824 54 18341056284464359783
22854114 111 18201716267135623345
23557571 272 15195286391791256859
23559900 14 17167866361400367183
2748010 2 17836070192258701270
3060560 45 18341902921524254156
7364860 26 17846781763053373422
81228 2 17614002893669168196
81539 233 17677342735099253780
8272917 22 18412270510661663735

> <PUBCHEM_SHAPE_MULTIPOLES>
302.82
7.68
2.06
1.22
13.11
0.34
0.15
-0.39
1.14
-2.11
-0.62
-0.62
-0.03
-0.25

> <PUBCHEM_SHAPE_SELFOVERLAP>
599.794

> <PUBCHEM_SHAPE_VOLUME>
179.6

> <PUBCHEM_COORDINATE_TYPE>
2
5
10

$$$$
