5374527
  -OEChem-11232109213D

 34 34  0     0  0  0  0  0  0999 V2000
    1.2638    0.0719   -1.8706 O   0  0  0  0  0  0  0  0  0  0  0  0
   -1.0556   -1.1637    0.0441 C   0  0  0  0  0  0  0  0  0  0  0  0
   -2.3782   -0.9856    0.8390 C   0  0  0  0  0  0  0  0  0  0  0  0
   -3.1939    0.1937    0.3405 C   0  0  0  0  0  0  0  0  0  0  0  0
   -0.3370    0.1885   -0.1758 C   0  0  0  0  0  0  0  0  0  0  0  0
   -2.3954    1.4800    0.4895 C   0  0  0  0  0  0  0  0  0  0  0  0
   -0.9472    1.3782    0.0549 C   0  0  0  0  0  0  0  0  0  0  0  0
   -1.3745   -1.8080   -1.3246 C   0  0  0  0  0  0  0  0  0  0  0  0
   -0.1946   -2.1543    0.8656 C   0  0  0  0  0  0  0  0  0  0  0  0
    1.0271    0.1023   -0.6711 C   0  0  0  0  0  0  0  0  0  0  0  0
   -0.3064    2.7401   -0.0814 C   0  0  0  0  0  0  0  0  0  0  0  0
    2.0654    0.0558    0.3862 C   0  0  0  0  0  0  0  0  0  0  0  0
    3.3600   -0.0240    0.0508 C   0  0  0  0  0  0  0  0  0  0  0  0
    4.4665   -0.0750    1.0529 C   0  0  0  0  0  0  0  0  0  0  0  0
   -2.1579   -0.8298    1.9044 H   0  0  0  0  0  0  0  0  0  0  0  0
   -2.9852   -1.8981    0.7833 H   0  0  0  0  0  0  0  0  0  0  0  0
   -4.1266    0.2729    0.9110 H   0  0  0  0  0  0  0  0  0  0  0  0
   -3.4806    0.0473   -0.7072 H   0  0  0  0  0  0  0  0  0  0  0  0
   -2.4148    1.7976    1.5401 H   0  0  0  0  0  0  0  0  0  0  0  0
   -2.9032    2.2625   -0.0877 H   0  0  0  0  0  0  0  0  0  0  0  0
   -1.9378   -1.1289   -1.9737 H   0  0  0  0  0  0  0  0  0  0  0  0
   -0.4590   -2.0861   -1.8592 H   0  0  0  0  0  0  0  0  0  0  0  0
   -1.9663   -2.7226   -1.2034 H   0  0  0  0  0  0  0  0  0  0  0  0
   -0.7541   -3.0740    1.0754 H   0  0  0  0  0  0  0  0  0  0  0  0
    0.7114   -2.4544    0.3279 H   0  0  0  0  0  0  0  0  0  0  0  0
    0.1028   -1.7253    1.8290 H   0  0  0  0  0  0  0  0  0  0  0  0
   -0.8351    3.3342   -0.8341 H   0  0  0  0  0  0  0  0  0  0  0  0
    0.7426    2.6875   -0.3855 H   0  0  0  0  0  0  0  0  0  0  0  0
   -0.3454    3.2725    0.8747 H   0  0  0  0  0  0  0  0  0  0  0  0
    1.7576    0.1000    1.4254 H   0  0  0  0  0  0  0  0  0  0  0  0
    3.6603   -0.0608   -0.9929 H   0  0  0  0  0  0  0  0  0  0  0  0
    5.0388   -0.9994    0.9289 H   0  0  0  0  0  0  0  0  0  0  0  0
    5.1434    0.7717    0.9034 H   0  0  0  0  0  0  0  0  0  0  0  0
    4.0964   -0.0384    2.0824 H   0  0  0  0  0  0  0  0  0  0  0  0
  1 10  2  0  0  0  0
  2  3  1  0  0  0  0
  2  5  1  0  0  0  0
  2  8  1  0  0  0  0
  2  9  1  0  0  0  0
  3  4  1  0  0  0  0
  3 15  1  0  0  0  0
  3 16  1  0  0  0  0
  4  6  1  0  0  0  0
  4 17  1  0  0  0  0
  4 18  1  0  0  0  0
  5  7  2  0  0  0  0
  5 10  1  0  0  0  0
  6  7  1  0  0  0  0
  6 19  1  0  0  0  0
  6 20  1  0  0  0  0
  7 11  1  0  0  0  0
  8 21  1  0  0  0  0
  8 22  1  0  0  0  0
  8 23  1  0  0  0  0
  9 24  1  0  0  0  0
  9 25  1  0  0  0  0
  9 26  1  0  0  0  0
 10 12  1  0  0  0  0
 11 27  1  0  0  0  0
 11 28  1  0  0  0  0
 11 29  1  0  0  0  0
 12 13  2  0  0  0  0
 12 30  1  0  0  0  0
 13 14  1  0  0  0  0
 13 31  1  0  0  0  0
 14 32  1  0  0  0  0
 14 33  1  0  0  0  0
 14 34  1  0  0  0  0
M  END
> <PUBCHEM_COMPOUND_CID>
5374527

> <PUBCHEM_CONFORMER_RMSD>
0.6

> <PUBCHEM_CONFORMER_DIVERSEORDER>
1
4
5
2
3

> <PUBCHEM_MMFF94_PARTIAL_CHARGES>
12
1 -0.57
10 0.54
11 0.14
12 -0.14
13 -0.29
14 0.14
2 0.14
30 0.15
31 0.15
5 -0.12
6 0.14
7 -0.28

> <PUBCHEM_EFFECTIVE_ROTOR_COUNT>
2.8

> <PUBCHEM_PHARMACOPHORE_FEATURES>
4
1 1 acceptor
1 14 hydrophobe
3 2 8 9 hydrophobe
6 2 3 4 5 6 7 rings

> <PUBCHEM_HEAVY_ATOM_COUNT>
14

> <PUBCHEM_ATOM_DEF_STEREO_COUNT>
0

> <PUBCHEM_ATOM_UDEF_STEREO_COUNT>
0

> <PUBCHEM_BOND_DEF_STEREO_COUNT>
1

> <PUBCHEM_BOND_UDEF_STEREO_COUNT>
0

> <PUBCHEM_ISOTOPIC_ATOM_COUNT>
0

> <PUBCHEM_COMPONENT_COUNT>
1

> <PUBCHEM_CACTVS_TAUTO_COUNT>
13

> <PUBCHEM_CONFORMER_ID>
0052023F00000001

> <PUBCHEM_MMFF94_ENERGY>
29.944

> <PUBCHEM_FEATURE_SELFOVERLAP>
20.297

> <PUBCHEM_SHAPE_FINGERPRINT>
11132069 177 18201716262819693576
11578080 2 17387950187910477556
12119455 92 17274815827295423652
12251169 10 18201717383869474392
12423570 1 10768569638214853351
13024252 1 17967524679733603959
13296909 8 18336817633191196220
13538477 17 17968675924105251894
13581323 91 18408889529343411370
14614273 12 18116151065450560365
14817 1 14719511419499131645
15076042 46 18191021210020900970
15219456 202 17774729658236493494
15375462 478 18187085044113577514
15775835 57 18341333275563778833
16945 1 18267325242830684947
17846911 113 18341051826499614841
20510252 161 18341613659777500152
20645464 45 17846222145841189906
20645476 183 17533526613948737063
20871998 184 18342742913847695527
21501502 16 18127127708688812728
21650355 55 18336539508099001208
22344851 262 17703791465598375879
232386 152 18262525900123577156
23402539 116 18130211723241157607
23419403 2 16840747483166446173
23559900 14 18269287776939844086
257057 1 17624681750051296919
2748010 2 18052837861444256445
4072396 5 18334578989126083065
43471831 8 18188491255050931706
53812654 25 18410300245521792485
5706482 22 18338509746894269979
69090 78 18060696178316658847
7364860 26 17550954689350749407
77492 1 17603882108262991076
81228 2 18339939137811980320
90316 7 18335698313063975144

> <PUBCHEM_SHAPE_MULTIPOLES>
282.24
5.24
2.21
1.18
5.8
0.59
-0.38
0.03
1.89
-1.32
0.04
0.22
-0.35
-0.24

> <PUBCHEM_SHAPE_SELFOVERLAP>
565.327

> <PUBCHEM_SHAPE_VOLUME>
166.6

> <PUBCHEM_COORDINATE_TYPE>
2
5
10

$$$$
