5379425
  -OEChem-11232108543D

 46 47  0     0  0  0  0  0  0999 V2000
    6.0485    1.7757    1.5212 O   0  0  0  0  0  0  0  0  0  0  0  0
    5.3187   -1.7571   -1.8193 O   0  0  0  0  0  0  0  0  0  0  0  0
   -6.0174   -2.2526    0.8363 O   0  0  0  0  0  0  0  0  0  0  0  0
   -5.4098    2.4017   -0.6264 O   0  0  0  0  0  0  0  0  0  0  0  0
    6.9489   -0.2066   -0.2241 O   0  0  0  0  0  0  0  0  0  0  0  0
   -6.9800    0.2837    0.1826 O   0  0  0  0  0  0  0  0  0  0  0  0
    0.6371    0.0501   -0.6342 N   0  0  0  0  0  0  0  0  0  0  0  0
   -0.6910    0.3237   -0.5461 N   0  0  0  0  0  0  0  0  0  0  0  0
    2.9387    0.4600   -0.0161 C   0  0  0  0  0  0  0  0  0  0  0  0
   -2.9678   -0.3499   -0.0826 C   0  0  0  0  0  0  0  0  0  0  0  0
    3.8535    1.2411    0.8008 C   0  0  0  0  0  0  0  0  0  0  0  0
    3.4643   -0.5616   -0.9067 C   0  0  0  0  0  0  0  0  0  0  0  0
   -3.8518   -1.4242    0.3406 C   0  0  0  0  0  0  0  0  0  0  0  0
   -3.5249    0.9524   -0.4090 C   0  0  0  0  0  0  0  0  0  0  0  0
    5.1792    1.0370    0.7484 C   0  0  0  0  0  0  0  0  0  0  0  0
    4.7808   -0.7974   -0.9897 C   0  0  0  0  0  0  0  0  0  0  0  0
   -5.1775   -1.2365    0.4357 C   0  0  0  0  0  0  0  0  0  0  0  0
   -4.8426    1.1821   -0.3277 C   0  0  0  0  0  0  0  0  0  0  0  0
    1.6156    0.6819    0.0513 C   0  0  0  0  0  0  0  0  0  0  0  0
   -1.6518   -0.5590   -0.1715 C   0  0  0  0  0  0  0  0  0  0  0  0
    5.7397   -0.0067   -0.1606 C   0  0  0  0  0  0  0  0  0  0  0  0
   -5.7701    0.0933    0.1038 C   0  0  0  0  0  0  0  0  0  0  0  0
    6.2667    1.1504    2.7716 C   0  0  0  0  0  0  0  0  0  0  0  0
    5.4165   -3.0015   -1.1530 C   0  0  0  0  0  0  0  0  0  0  0  0
   -6.1808   -2.2467    2.2418 C   0  0  0  0  0  0  0  0  0  0  0  0
   -5.1429    2.7667   -1.9672 C   0  0  0  0  0  0  0  0  0  0  0  0
    3.4464    2.0019    1.4609 H   0  0  0  0  0  0  0  0  0  0  0  0
    2.8002   -1.1556   -1.5243 H   0  0  0  0  0  0  0  0  0  0  0  0
   -3.4217   -2.3926    0.5804 H   0  0  0  0  0  0  0  0  0  0  0  0
   -2.8706    1.7646   -0.7026 H   0  0  0  0  0  0  0  0  0  0  0  0
    1.2218    1.4455    0.7175 H   0  0  0  0  0  0  0  0  0  0  0  0
   -1.2325   -1.5318    0.0732 H   0  0  0  0  0  0  0  0  0  0  0  0
    0.8912   -0.6703   -1.2993 H   0  0  0  0  0  0  0  0  0  0  0  0
   -0.9649    1.2598   -0.8188 H   0  0  0  0  0  0  0  0  0  0  0  0
    6.9779    1.7595    3.3377 H   0  0  0  0  0  0  0  0  0  0  0  0
    6.7007    0.1520    2.6491 H   0  0  0  0  0  0  0  0  0  0  0  0
    5.3396    1.0883    3.3523 H   0  0  0  0  0  0  0  0  0  0  0  0
    6.0618   -2.9341   -0.2702 H   0  0  0  0  0  0  0  0  0  0  0  0
    5.8644   -3.7231   -1.8429 H   0  0  0  0  0  0  0  0  0  0  0  0
    4.4278   -3.3777   -0.8675 H   0  0  0  0  0  0  0  0  0  0  0  0
   -6.8705   -3.0534    2.5080 H   0  0  0  0  0  0  0  0  0  0  0  0
   -6.6154   -1.3031    2.5898 H   0  0  0  0  0  0  0  0  0  0  0  0
   -5.2302   -2.4339    2.7534 H   0  0  0  0  0  0  0  0  0  0  0  0
   -4.1080    3.1007   -2.0948 H   0  0  0  0  0  0  0  0  0  0  0  0
   -5.7913    3.6116   -2.2200 H   0  0  0  0  0  0  0  0  0  0  0  0
   -5.3722    1.9532   -2.6656 H   0  0  0  0  0  0  0  0  0  0  0  0
  1 15  1  0  0  0  0
  1 23  1  0  0  0  0
  2 16  1  0  0  0  0
  2 24  1  0  0  0  0
  3 17  1  0  0  0  0
  3 25  1  0  0  0  0
  4 18  1  0  0  0  0
  4 26  1  0  0  0  0
  5 21  2  0  0  0  0
  6 22  2  0  0  0  0
  7  8  1  0  0  0  0
  7 19  1  0  0  0  0
  7 33  1  0  0  0  0
  8 20  1  0  0  0  0
  8 34  1  0  0  0  0
  9 11  1  0  0  0  0
  9 12  1  0  0  0  0
  9 19  2  0  0  0  0
 10 13  1  0  0  0  0
 10 14  1  0  0  0  0
 10 20  2  0  0  0  0
 11 15  2  0  0  0  0
 11 27  1  0  0  0  0
 12 16  2  0  0  0  0
 12 28  1  0  0  0  0
 13 17  2  0  0  0  0
 13 29  1  0  0  0  0
 14 18  2  0  0  0  0
 14 30  1  0  0  0  0
 15 21  1  0  0  0  0
 16 21  1  0  0  0  0
 17 22  1  0  0  0  0
 18 22  1  0  0  0  0
 19 31  1  0  0  0  0
 20 32  1  0  0  0  0
 23 35  1  0  0  0  0
 23 36  1  0  0  0  0
 23 37  1  0  0  0  0
 24 38  1  0  0  0  0
 24 39  1  0  0  0  0
 24 40  1  0  0  0  0
 25 41  1  0  0  0  0
 25 42  1  0  0  0  0
 25 43  1  0  0  0  0
 26 44  1  0  0  0  0
 26 45  1  0  0  0  0
 26 46  1  0  0  0  0
M  END
> <PUBCHEM_COMPOUND_CID>
5379425

> <PUBCHEM_CONFORMER_RMSD>
0.8

> <PUBCHEM_CONFORMER_DIVERSEORDER>
1
16
20
19
6
18
12
25
10
7
15
31
17
30
4
11
9
14
34
23
26
5
3
21
28
13
27
2
22
24
29
32
8
33

> <PUBCHEM_MMFF94_PARTIAL_CHARGES>
32
1 -0.36
11 -0.15
12 -0.15
13 -0.15
14 -0.15
15 0.09
16 0.09
17 0.09
18 0.09
19 -0.05
2 -0.36
20 -0.05
21 0.54
22 0.54
23 0.28
24 0.28
25 0.28
26 0.28
27 0.15
28 0.15
29 0.15
3 -0.36
30 0.15
31 0.15
32 0.15
33 0.4
34 0.4
4 -0.36
5 -0.57
6 -0.57
7 -0.5
8 -0.5

> <PUBCHEM_EFFECTIVE_ROTOR_COUNT>
7

> <PUBCHEM_PHARMACOPHORE_FEATURES>
10
1 1 acceptor
1 2 acceptor
1 3 acceptor
1 4 acceptor
1 5 acceptor
1 6 acceptor
1 7 donor
1 8 donor
6 10 13 14 17 18 22 rings
6 9 11 12 15 16 21 rings

> <PUBCHEM_HEAVY_ATOM_COUNT>
26

> <PUBCHEM_ATOM_DEF_STEREO_COUNT>
0

> <PUBCHEM_ATOM_UDEF_STEREO_COUNT>
0

> <PUBCHEM_BOND_DEF_STEREO_COUNT>
0

> <PUBCHEM_BOND_UDEF_STEREO_COUNT>
0

> <PUBCHEM_ISOTOPIC_ATOM_COUNT>
0

> <PUBCHEM_COMPONENT_COUNT>
1

> <PUBCHEM_CACTVS_TAUTO_COUNT>
6

> <PUBCHEM_CONFORMER_ID>
0052156100000001

> <PUBCHEM_MMFF94_ENERGY>
88.9026

> <PUBCHEM_FEATURE_SELFOVERLAP>
52.369

> <PUBCHEM_SHAPE_FINGERPRINT>
10 15 18339636854029950728
10299344 5 16443062807101407168
10319926 262 18333734628419863749
10638233 991 15051729832562444570
10835480 77 18201431471981089584
11315181 36 17530686541587164085
11545043 162 18409168818356049641
12730499 353 18202285823418834366
13073987 5 17988932158067427976
13533116 47 17846786196050388262
13782708 43 18408889550734410507
14461889 52 18411134779617177634
14933364 13 18413109472092948444
15183329 4 16443067213875327350
15799311 1 16443069382685892146
16079462 125 18272077297489155428
17844677 252 18187935009699558821
18927931 339 18113625608186237239
19489759 90 18187365437481196505
20567600 75 18413390925531240135
21033648 29 18272077310363449577
21130935 74 18060425720248099711
21279426 13 18339364050291484806
21315759 148 18408887342983589578
21315759 40 16153704340535730818
22061861 79 18202286883320896758
2303208 19 18411992346656572687
23081809 10 15936128560189280428
23559900 14 18342172254459996625
25242607 90 17827089699876291371
3383291 50 17968664951176877547
397830 11 18269553999633117976
4073 2 18341049730819565134
5104073 3 17989213599069385946
6698420 124 18197501719646843049
9995097 60 18342458127466998183

> <PUBCHEM_SHAPE_MULTIPOLES>
489.89
23.25
2.52
1.72
0.6
0.48
-0.84
1.63
-4.61
-2.24
0.43
1.83
-0.02
6.45

> <PUBCHEM_SHAPE_SELFOVERLAP>
1029.9

> <PUBCHEM_SHAPE_VOLUME>
275

> <PUBCHEM_COORDINATE_TYPE>
2
5
10

$$$$
