5380647
  -OEChem-11232108443D

 22 22  0     0  0  0  0  0  0999 V2000
    1.7727    0.3003    0.6939 O   0  0  0  0  0  0  0  0  0  0  0  0
    3.3033   -0.2166   -0.9831 O   0  0  0  0  0  0  0  0  0  0  0  0
   -0.9993    0.6949   -0.2455 C   0  0  0  0  0  0  0  0  0  0  0  0
   -1.2558   -0.3177   -1.1699 C   0  0  0  0  0  0  0  0  0  0  0  0
   -1.8183    0.8410    0.8740 C   0  0  0  0  0  0  0  0  0  0  0  0
    0.1226    1.5982   -0.4489 C   0  0  0  0  0  0  0  0  0  0  0  0
   -2.3314   -1.1842   -0.9748 C   0  0  0  0  0  0  0  0  0  0  0  0
   -2.8938   -0.0256    1.0693 C   0  0  0  0  0  0  0  0  0  0  0  0
   -3.1503   -1.0382    0.1448 C   0  0  0  0  0  0  0  0  0  0  0  0
    1.3837    1.4058   -0.0144 C   0  0  0  0  0  0  0  0  0  0  0  0
    2.7602   -0.4441    0.0904 C   0  0  0  0  0  0  0  0  0  0  0  0
    3.1063   -1.6138    0.9643 C   0  0  0  0  0  0  0  0  0  0  0  0
   -0.6264   -0.4446   -2.0475 H   0  0  0  0  0  0  0  0  0  0  0  0
   -1.6316    1.6254    1.6036 H   0  0  0  0  0  0  0  0  0  0  0  0
   -0.1048    2.5066   -1.0009 H   0  0  0  0  0  0  0  0  0  0  0  0
   -2.5311   -1.9727   -1.6945 H   0  0  0  0  0  0  0  0  0  0  0  0
   -3.5315    0.0879    1.9410 H   0  0  0  0  0  0  0  0  0  0  0  0
   -3.9876   -1.7130    0.2969 H   0  0  0  0  0  0  0  0  0  0  0  0
    2.1859    2.1107   -0.1825 H   0  0  0  0  0  0  0  0  0  0  0  0
    2.2200   -2.2339    1.1208 H   0  0  0  0  0  0  0  0  0  0  0  0
    3.5017   -1.2583    1.9191 H   0  0  0  0  0  0  0  0  0  0  0  0
    3.8719   -2.2206    0.4723 H   0  0  0  0  0  0  0  0  0  0  0  0
  1 10  1  0  0  0  0
  1 11  1  0  0  0  0
  2 11  2  0  0  0  0
  3  4  2  0  0  0  0
  3  5  1  0  0  0  0
  3  6  1  0  0  0  0
  4  7  1  0  0  0  0
  4 13  1  0  0  0  0
  5  8  2  0  0  0  0
  5 14  1  0  0  0  0
  6 10  2  0  0  0  0
  6 15  1  0  0  0  0
  7  9  2  0  0  0  0
  7 16  1  0  0  0  0
  8  9  1  0  0  0  0
  8 17  1  0  0  0  0
  9 18  1  0  0  0  0
 10 19  1  0  0  0  0
 11 12  1  0  0  0  0
 12 20  1  0  0  0  0
 12 21  1  0  0  0  0
 12 22  1  0  0  0  0
M  END
> <PUBCHEM_COMPOUND_CID>
5380647

> <PUBCHEM_CONFORMER_RMSD>
0.6

> <PUBCHEM_CONFORMER_DIVERSEORDER>
1
9
5
7
6
12
8
10
4
14
11
3
13
2

> <PUBCHEM_MMFF94_PARTIAL_CHARGES>
19
1 -0.23
10 -0.07
11 0.66
12 0.06
13 0.15
14 0.15
15 0.15
16 0.15
17 0.15
18 0.15
19 0.15
2 -0.57
3 0.03
4 -0.15
5 -0.15
6 -0.18
7 -0.15
8 -0.15
9 -0.15

> <PUBCHEM_EFFECTIVE_ROTOR_COUNT>
3

> <PUBCHEM_PHARMACOPHORE_FEATURES>
2
1 2 acceptor
6 3 4 5 7 8 9 rings

> <PUBCHEM_HEAVY_ATOM_COUNT>
12

> <PUBCHEM_ATOM_DEF_STEREO_COUNT>
0

> <PUBCHEM_ATOM_UDEF_STEREO_COUNT>
0

> <PUBCHEM_BOND_DEF_STEREO_COUNT>
1

> <PUBCHEM_BOND_UDEF_STEREO_COUNT>
0

> <PUBCHEM_ISOTOPIC_ATOM_COUNT>
0

> <PUBCHEM_COMPONENT_COUNT>
1

> <PUBCHEM_CACTVS_TAUTO_COUNT>
1

> <PUBCHEM_CONFORMER_ID>
00521A2700000001

> <PUBCHEM_MMFF94_ENERGY>
33.9426

> <PUBCHEM_FEATURE_SELFOVERLAP>
10.148

> <PUBCHEM_SHAPE_FINGERPRINT>
10149128 111 9655574136537882914
10857977 72 15769223885278813841
11769659 78 18341043125027579359
12162725 195 9223228537934564322
12897270 3 14201400490650731272
12932764 1 18411981355983007048
15076042 46 17775013400792568409
15375462 189 18410579483173813920
18522851 12 18337684031073989070
18522851 268 16008753506633215410
19107657 47 13038912083941741566
19422 9 18338809943860062568
20281407 28 18334011687774633088
20361792 2 18334007302618337868
20645464 45 14692580922286282093
20711985 344 17387390373003470525
20871999 31 14057289774237152939
21524375 3 9583517607615083508
22169311 14 15626227896654928774
22445834 79 18343022237172326427
22485316 2 18334574633549092760
23552423 10 18195244653274253261
23557571 272 14490488520147470117
25610 171 15769506408000613939
27216 239 12750365142857080186
305870 269 10447663369718234196
369184 2 14979954778858876765
5262128 65 14924239166126266318
528716 315 13118006599747551779

> <PUBCHEM_SHAPE_MULTIPOLES>
235.22
5.74
1.58
1.17
2.39
0.06
-0.04
-2.76
0.73
0.42
0.05
-0.28
-0.17
-0.66

> <PUBCHEM_SHAPE_SELFOVERLAP>
482.418

> <PUBCHEM_SHAPE_VOLUME>
134.2

> <PUBCHEM_COORDINATE_TYPE>
2
5
10

$$$$
