5382490
  -OEChem-11232108473D

 30 30  0     0  0  0  0  0  0999 V2000
   -2.5484   -0.4309   -0.5716 O   0  0  0  0  0  0  0  0  0  0  0  0
   -1.0714    1.9237   -0.5549 O   0  0  0  0  0  0  0  0  0  0  0  0
   -1.2028   -0.4592   -0.3604 C   0  0  0  0  0  0  0  0  0  0  0  0
    1.5519   -0.5440    0.0713 C   0  0  0  0  0  0  0  0  0  0  0  0
   -0.4615    0.7224   -0.3524 C   0  0  0  0  0  0  0  0  0  0  0  0
    0.9160    0.6800   -0.1365 C   0  0  0  0  0  0  0  0  0  0  0  0
   -0.5669   -1.6831   -0.1525 C   0  0  0  0  0  0  0  0  0  0  0  0
    0.8104   -1.7255    0.0634 C   0  0  0  0  0  0  0  0  0  0  0  0
   -3.3782   -0.9532    0.4641 C   0  0  0  0  0  0  0  0  0  0  0  0
    2.9879   -0.5886    0.2974 C   0  0  0  0  0  0  0  0  0  0  0  0
   -4.6995   -0.2144    0.4572 C   0  0  0  0  0  0  0  0  0  0  0  0
    3.8729    0.3790   -0.0339 C   0  0  0  0  0  0  0  0  0  0  0  0
   -1.5548    2.6079    0.5993 C   0  0  0  0  0  0  0  0  0  0  0  0
    5.3443    0.2858    0.2096 C   0  0  0  0  0  0  0  0  0  0  0  0
    1.4561    1.6227   -0.1188 H   0  0  0  0  0  0  0  0  0  0  0  0
   -1.1302   -2.6122   -0.1645 H   0  0  0  0  0  0  0  0  0  0  0  0
    1.2891   -2.6890    0.2207 H   0  0  0  0  0  0  0  0  0  0  0  0
   -3.5464   -2.0198    0.2800 H   0  0  0  0  0  0  0  0  0  0  0  0
   -2.9045   -0.8344    1.4466 H   0  0  0  0  0  0  0  0  0  0  0  0
    3.3658   -1.4949    0.7663 H   0  0  0  0  0  0  0  0  0  0  0  0
   -5.3662   -0.5987    1.2342 H   0  0  0  0  0  0  0  0  0  0  0  0
   -4.5448    0.8567    0.6227 H   0  0  0  0  0  0  0  0  0  0  0  0
   -5.1935   -0.3175   -0.5146 H   0  0  0  0  0  0  0  0  0  0  0  0
    3.5515    1.2907   -0.5282 H   0  0  0  0  0  0  0  0  0  0  0  0
   -0.7197    2.9056    1.2413 H   0  0  0  0  0  0  0  0  0  0  0  0
   -2.2536    1.9810    1.1616 H   0  0  0  0  0  0  0  0  0  0  0  0
   -2.0804    3.5081    0.2691 H   0  0  0  0  0  0  0  0  0  0  0  0
    5.8842    0.3530   -0.7398 H   0  0  0  0  0  0  0  0  0  0  0  0
    5.6687    1.1117    0.8499 H   0  0  0  0  0  0  0  0  0  0  0  0
    5.6245   -0.6537    0.6962 H   0  0  0  0  0  0  0  0  0  0  0  0
  1  3  1  0  0  0  0
  1  9  1  0  0  0  0
  2  5  1  0  0  0  0
  2 13  1  0  0  0  0
  3  5  2  0  0  0  0
  3  7  1  0  0  0  0
  4  6  2  0  0  0  0
  4  8  1  0  0  0  0
  4 10  1  0  0  0  0
  5  6  1  0  0  0  0
  6 15  1  0  0  0  0
  7  8  2  0  0  0  0
  7 16  1  0  0  0  0
  8 17  1  0  0  0  0
  9 11  1  0  0  0  0
  9 18  1  0  0  0  0
  9 19  1  0  0  0  0
 10 12  2  0  0  0  0
 10 20  1  0  0  0  0
 11 21  1  0  0  0  0
 11 22  1  0  0  0  0
 11 23  1  0  0  0  0
 12 14  1  0  0  0  0
 12 24  1  0  0  0  0
 13 25  1  0  0  0  0
 13 26  1  0  0  0  0
 13 27  1  0  0  0  0
 14 28  1  0  0  0  0
 14 29  1  0  0  0  0
 14 30  1  0  0  0  0
M  END
> <PUBCHEM_COMPOUND_CID>
5382490

> <PUBCHEM_CONFORMER_RMSD>
0.6

> <PUBCHEM_CONFORMER_DIVERSEORDER>
1
3
16
9
10
6
12
2
15
13
11
5
7
8
4
14

> <PUBCHEM_MMFF94_PARTIAL_CHARGES>
18
1 -0.36
10 -0.18
12 -0.29
13 0.28
14 0.14
15 0.15
16 0.15
17 0.15
2 -0.36
20 0.15
24 0.15
3 0.08
4 0.03
5 0.08
6 -0.15
7 -0.15
8 -0.15
9 0.28

> <PUBCHEM_EFFECTIVE_ROTOR_COUNT>
4

> <PUBCHEM_PHARMACOPHORE_FEATURES>
4
1 1 acceptor
1 14 hydrophobe
1 2 acceptor
6 3 4 5 6 7 8 rings

> <PUBCHEM_HEAVY_ATOM_COUNT>
14

> <PUBCHEM_ATOM_DEF_STEREO_COUNT>
0

> <PUBCHEM_ATOM_UDEF_STEREO_COUNT>
0

> <PUBCHEM_BOND_DEF_STEREO_COUNT>
1

> <PUBCHEM_BOND_UDEF_STEREO_COUNT>
0

> <PUBCHEM_ISOTOPIC_ATOM_COUNT>
0

> <PUBCHEM_COMPONENT_COUNT>
1

> <PUBCHEM_CACTVS_TAUTO_COUNT>
1

> <PUBCHEM_CONFORMER_ID>
0052215A00000001

> <PUBCHEM_MMFF94_ENERGY>
49.7593

> <PUBCHEM_FEATURE_SELFOVERLAP>
20.301

> <PUBCHEM_SHAPE_FINGERPRINT>
11132069 177 18343301491519284034
12390115 104 18129396920643034928
12932764 1 17345735439889395958
13140716 1 18193556898646448106
13214271 11 18411699911303273639
13380535 21 18125447397365620244
15042514 8 18337390573276159882
15048467 5 17275109439580752747
15207287 21 12107781900173533578
15219456 202 17988365845666329750
16945 1 18270384057976947862
18186145 218 16199854125647131186
18522853 276 18408321103544252900
193761 8 17978509732860986375
19784866 170 18411424977487609403
200 152 14056715760105117578
20510252 161 18343301431674565816
20645477 56 18202275936235112578
21256008 23 18409452522368013451
21501502 16 18194678164162265386
23402539 116 18342450478119960814
23557571 272 18130236982308121028
25610 137 18335138687113884854
26918003 58 17749110014943643963
2748010 2 18123746457046064678
43471831 8 18261671463672807170
5104073 3 18266167345829022690
53655031 270 18408887334446376571
537710 114 18261400000169502316
53812653 8 18410288090943725186
57426455 19 18260831522429608154

> <PUBCHEM_SHAPE_MULTIPOLES>
276.37
8.03
1.97
0.73
4.41
1.03
0.02
-0.08
1.46
-1.11
0.15
-0.17
0.06
-0.06

> <PUBCHEM_SHAPE_SELFOVERLAP>
558.532

> <PUBCHEM_SHAPE_VOLUME>
162.8

> <PUBCHEM_COORDINATE_TYPE>
2
5
10

$$$$
