53822360
  -OEChem-11232108493D

 31 30  0     1  0  0  0  0  0999 V2000
   -0.4256   -2.5614    0.2210 O   0  0  0  0  0  0  0  0  0  0  0  0
    1.4476   -1.0660   -0.0232 C   0  0  0  0  0  0  0  0  0  0  0  0
    0.0148   -1.2306    0.5147 C   0  0  1  0  0  0  0  0  0  0  0  0
    2.1121    0.2793    0.2820 C   0  0  0  0  0  0  0  0  0  0  0  0
   -0.9941   -0.2650   -0.0797 C   0  0  0  0  0  0  0  0  0  0  0  0
    3.5615    0.3529   -0.1991 C   0  0  0  0  0  0  0  0  0  0  0  0
   -1.7708    0.5763    0.6328 C   0  0  0  0  0  0  0  0  0  0  0  0
   -1.1237   -0.2805   -1.5855 C   0  0  0  0  0  0  0  0  0  0  0  0
    4.1538    1.7343    0.0344 C   0  0  0  0  0  0  0  0  0  0  0  0
   -2.8002    1.5537    0.1427 C   0  0  0  0  0  0  0  0  0  0  0  0
   -4.1753    0.9070    0.0599 C   0  0  0  0  0  0  0  0  0  0  0  0
    1.4664   -1.2520   -1.1050 H   0  0  0  0  0  0  0  0  0  0  0  0
    2.0659   -1.8666    0.4055 H   0  0  0  0  0  0  0  0  0  0  0  0
    0.0273   -1.1319    1.6068 H   0  0  0  0  0  0  0  0  0  0  0  0
    1.5364    1.0836   -0.1915 H   0  0  0  0  0  0  0  0  0  0  0  0
    2.0806    0.4603    1.3635 H   0  0  0  0  0  0  0  0  0  0  0  0
    3.6099    0.1193   -1.2690 H   0  0  0  0  0  0  0  0  0  0  0  0
    4.1655   -0.3965    0.3251 H   0  0  0  0  0  0  0  0  0  0  0  0
   -1.6645    0.5494    1.7170 H   0  0  0  0  0  0  0  0  0  0  0  0
   -0.2684    0.2263   -2.0438 H   0  0  0  0  0  0  0  0  0  0  0  0
   -1.1485   -1.3109   -1.9561 H   0  0  0  0  0  0  0  0  0  0  0  0
   -2.0336    0.1938   -1.9606 H   0  0  0  0  0  0  0  0  0  0  0  0
    4.1437    1.9902    1.0987 H   0  0  0  0  0  0  0  0  0  0  0  0
    3.5911    2.5000   -0.5090 H   0  0  0  0  0  0  0  0  0  0  0  0
    5.1913    1.7651   -0.3127 H   0  0  0  0  0  0  0  0  0  0  0  0
   -2.5218    1.9799   -0.8266 H   0  0  0  0  0  0  0  0  0  0  0  0
   -2.8367    2.3995    0.8397 H   0  0  0  0  0  0  0  0  0  0  0  0
    0.1875   -3.1762    0.6591 H   0  0  0  0  0  0  0  0  0  0  0  0
   -4.4919    0.5242    1.0362 H   0  0  0  0  0  0  0  0  0  0  0  0
   -4.9171    1.6413   -0.2703 H   0  0  0  0  0  0  0  0  0  0  0  0
   -4.1856    0.0746   -0.6514 H   0  0  0  0  0  0  0  0  0  0  0  0
  1  3  1  0  0  0  0
  1 28  1  0  0  0  0
  2  3  1  0  0  0  0
  2  4  1  0  0  0  0
  2 12  1  0  0  0  0
  2 13  1  0  0  0  0
  3  5  1  0  0  0  0
  3 14  1  0  0  0  0
  4  6  1  0  0  0  0
  4 15  1  0  0  0  0
  4 16  1  0  0  0  0
  5  7  2  3  0  0  0
  5  8  1  0  0  0  0
  6  9  1  0  0  0  0
  6 17  1  0  0  0  0
  6 18  1  0  0  0  0
  7 10  1  0  0  0  0
  7 19  1  0  0  0  0
  8 20  1  0  0  0  0
  8 21  1  0  0  0  0
  8 22  1  0  0  0  0
  9 23  1  0  0  0  0
  9 24  1  0  0  0  0
  9 25  1  0  0  0  0
 10 11  1  0  0  0  0
 10 26  1  0  0  0  0
 10 27  1  0  0  0  0
 11 29  1  0  0  0  0
 11 30  1  0  0  0  0
 11 31  1  0  0  0  0
M  END
> <PUBCHEM_COMPOUND_CID>
53822360

> <PUBCHEM_CONFORMER_RMSD>
0.6

> <PUBCHEM_CONFORMER_DIVERSEORDER>
1
163
26
213
196
218
221
154
193
167
205
207
198
128
122
102
41
158
177
99
129
6
120
23
181
46
90
208
74
111
212
133
199
182
117
174
165
143
189
62
201
40
144
219
106
211
14
171
170
114
195
202
215
73
37
136
179
118
152
214
4
137
200
64
3
160
127
204
33
191
105
94
151
222
145
55
187
194
30
209
115
176
21
53
49
166
113
89
68
150
93
157
48
184
101
162
131
18
119
54
147
130
172
81
42
178
7
149
183
159
80
220
134
76
123
2
83
188
70
51
175
66
155
138
164
100
12
10
216
206
59
47
31
139
85
142
38
86
35
88
190
180
63
217
65
75
92
203
32
52
95
96
197
5
17
67
107
11
103
87
140
146
58
79
148
116
161
126
109
25
69
98
186
78
28
34
9
91
50
77
84
29
97
13
173
110
108
61
210
135
43
56
72
168
192
121
15
153
27
141
57
24
22
36
60
112
82
104
45
19
39
125
132
124
20
16
156
169
8
71
185
44

> <PUBCHEM_MMFF94_PARTIAL_CHARGES>
8
1 -0.68
10 0.14
19 0.15
28 0.4
3 0.42
5 -0.28
7 -0.29
8 0.14

> <PUBCHEM_EFFECTIVE_ROTOR_COUNT>
5

> <PUBCHEM_PHARMACOPHORE_FEATURES>
5
1 1 acceptor
1 1 donor
1 11 hydrophobe
1 8 hydrophobe
1 9 hydrophobe

> <PUBCHEM_HEAVY_ATOM_COUNT>
11

> <PUBCHEM_ATOM_DEF_STEREO_COUNT>
0

> <PUBCHEM_ATOM_UDEF_STEREO_COUNT>
1

> <PUBCHEM_BOND_DEF_STEREO_COUNT>
0

> <PUBCHEM_BOND_UDEF_STEREO_COUNT>
1

> <PUBCHEM_ISOTOPIC_ATOM_COUNT>
0

> <PUBCHEM_COMPONENT_COUNT>
1

> <PUBCHEM_CACTVS_TAUTO_COUNT>
1

> <PUBCHEM_CONFORMER_ID>
0335439800000001

> <PUBCHEM_MMFF94_ENERGY>
5.0433

> <PUBCHEM_FEATURE_SELFOVERLAP>
25.373

> <PUBCHEM_SHAPE_FINGERPRINT>
10149128 111 18410294718157546540
10857977 72 16154287004810975165
10922049 32 18342184340550585207
11127187 94 14404901448546711564
12119455 92 17822563937156362167
122479 349 18260834834097254704
12346645 44 18408602535249335913
14123255 52 18410290307078512008
14897335 6 18411980260866417514
15342168 16 18187651331378258364
15775835 57 18271805704984162596
170605 34 18340488863465911267
17834072 32 18337116790654383172
18342897 96 18272647978235561894
19873495 37 18131346401918916799
20112054 13 18186802500096406412
20281407 28 9007062370291942868
20645477 56 18338519741789660736
20653085 51 18131075930701055270
20671657 1 18265053539985959114
20671657 53 13830132771992925040
20828058 19 9079113366938428804
20871998 22 9223224135603862730
20871999 31 16844998130436508461
21499 59 18410006611692951447
21524375 3 18341891861925483058
22485316 2 9007048054796933624
23235685 24 18408881832683051624
23500284 214 18336267924600882128
449060 62 18199188391298895545
6333272 397 18408045104302672193
81539 233 18340205168344400295

> <PUBCHEM_SHAPE_MULTIPOLES>
220.51
6.89
1.94
0.92
2.18
0.67
0.33
-5.42
-0.08
0.23
-0.23
-0.3
0.09
-0.17

> <PUBCHEM_SHAPE_SELFOVERLAP>
400.31

> <PUBCHEM_SHAPE_VOLUME>
142.5

> <PUBCHEM_COORDINATE_TYPE>
2
5
10

$$$$
