5388696
  -OEChem-11232108413D

 25 25  0     0  0  0  0  0  0999 V2000
    3.8819    0.2458    0.3691 O   0  0  0  0  0  0  0  0  0  0  0  0
   -4.9708   -0.2382    0.2368 O   0  0  0  0  0  0  0  0  0  0  0  0
   -0.1790    0.2101   -0.4886 C   0  0  0  0  0  0  0  0  0  0  0  0
    0.4352    1.3904   -0.0701 C   0  0  0  0  0  0  0  0  0  0  0  0
    0.5715   -0.9585   -0.6191 C   0  0  0  0  0  0  0  0  0  0  0  0
   -1.6020    0.1967   -0.7891 C   0  0  0  0  0  0  0  0  0  0  0  0
    2.5505    0.2337    0.0876 C   0  0  0  0  0  0  0  0  0  0  0  0
    1.7999    1.4022    0.2179 C   0  0  0  0  0  0  0  0  0  0  0  0
    1.9363   -0.9468   -0.3309 C   0  0  0  0  0  0  0  0  0  0  0  0
   -2.5921   -0.0778    0.0895 C   0  0  0  0  0  0  0  0  0  0  0  0
   -2.4418   -0.4578    1.5301 C   0  0  0  0  0  0  0  0  0  0  0  0
   -3.9791   -0.0164   -0.4482 C   0  0  0  0  0  0  0  0  0  0  0  0
    4.5896   -0.9836    0.2150 C   0  0  0  0  0  0  0  0  0  0  0  0
   -0.1362    2.3094    0.0362 H   0  0  0  0  0  0  0  0  0  0  0  0
    0.1062   -1.8860   -0.9445 H   0  0  0  0  0  0  0  0  0  0  0  0
   -1.8361    0.4532   -1.8204 H   0  0  0  0  0  0  0  0  0  0  0  0
    2.2729    2.3247    0.5436 H   0  0  0  0  0  0  0  0  0  0  0  0
    2.4592   -1.8891   -0.4532 H   0  0  0  0  0  0  0  0  0  0  0  0
   -1.3967   -0.4977    1.8502 H   0  0  0  0  0  0  0  0  0  0  0  0
   -2.9534    0.2691    2.1695 H   0  0  0  0  0  0  0  0  0  0  0  0
   -2.8784   -1.4457    1.7104 H   0  0  0  0  0  0  0  0  0  0  0  0
   -4.0730    0.2467   -1.5155 H   0  0  0  0  0  0  0  0  0  0  0  0
    4.5823   -1.3243   -0.8259 H   0  0  0  0  0  0  0  0  0  0  0  0
    4.2202   -1.7498    0.9051 H   0  0  0  0  0  0  0  0  0  0  0  0
    5.6341   -0.7909    0.4809 H   0  0  0  0  0  0  0  0  0  0  0  0
  1  7  1  0  0  0  0
  1 13  1  0  0  0  0
  2 12  2  0  0  0  0
  3  4  2  0  0  0  0
  3  5  1  0  0  0  0
  3  6  1  0  0  0  0
  4  8  1  0  0  0  0
  4 14  1  0  0  0  0
  5  9  2  0  0  0  0
  5 15  1  0  0  0  0
  6 10  2  0  0  0  0
  6 16  1  0  0  0  0
  7  8  2  0  0  0  0
  7  9  1  0  0  0  0
  8 17  1  0  0  0  0
  9 18  1  0  0  0  0
 10 11  1  0  0  0  0
 10 12  1  0  0  0  0
 11 19  1  0  0  0  0
 11 20  1  0  0  0  0
 11 21  1  0  0  0  0
 12 22  1  0  0  0  0
 13 23  1  0  0  0  0
 13 24  1  0  0  0  0
 13 25  1  0  0  0  0
M  END
> <PUBCHEM_COMPOUND_CID>
5388696

> <PUBCHEM_CONFORMER_RMSD>
0.6

> <PUBCHEM_CONFORMER_DIVERSEORDER>
1
3
2
4

> <PUBCHEM_MMFF94_PARTIAL_CHARGES>
19
1 -0.36
10 -0.12
11 0.14
12 0.5
13 0.28
14 0.15
15 0.15
16 0.15
17 0.15
18 0.15
2 -0.57
22 0.06
3 0.03
4 -0.15
5 -0.15
6 -0.18
7 0.08
8 -0.15
9 -0.15

> <PUBCHEM_EFFECTIVE_ROTOR_COUNT>
3

> <PUBCHEM_PHARMACOPHORE_FEATURES>
4
1 1 acceptor
1 11 hydrophobe
1 2 acceptor
6 3 4 5 7 8 9 rings

> <PUBCHEM_HEAVY_ATOM_COUNT>
13

> <PUBCHEM_ATOM_DEF_STEREO_COUNT>
0

> <PUBCHEM_ATOM_UDEF_STEREO_COUNT>
0

> <PUBCHEM_BOND_DEF_STEREO_COUNT>
1

> <PUBCHEM_BOND_UDEF_STEREO_COUNT>
0

> <PUBCHEM_ISOTOPIC_ATOM_COUNT>
0

> <PUBCHEM_COMPONENT_COUNT>
1

> <PUBCHEM_CACTVS_TAUTO_COUNT>
1

> <PUBCHEM_CONFORMER_ID>
0052399800000001

> <PUBCHEM_MMFF94_ENERGY>
39.9764

> <PUBCHEM_FEATURE_SELFOVERLAP>
20.297

> <PUBCHEM_SHAPE_FINGERPRINT>
10219947 1 18342458149195035444
10465860 250 17894624846861764664
11471102 20 18412259553947000868
11543360 7 15936423234180818318
12032990 46 18339361868943749566
12251169 10 18201999940835000303
124424 183 18186238428918786713
12500047 106 17095233722823316931
12932764 1 13623801791220639439
14115302 16 16805332097328870243
14252887 29 18201443545350053142
14911166 2 10737290117410854770
14943859 89 13183016319719065590
16945 1 18272377477132466108
17862501 102 17417806253372424439
18175812 5 18040998487576305375
200 152 18059849576338955885
20201158 50 18260268538216642699
20279233 1 18186809075575188115
20281407 28 17749112188065116322
20645477 70 18408319977999239830
20871998 22 18129669569487910478
21293036 1 8646768902343743252
22485316 2 17458061586057746930
23048698 100 17846781835904014224
23402539 116 17895184511776946287
23557571 272 17240760636610893420
23559900 14 17022905675079790672
26918003 58 18342740732737642675
2748010 2 17984137050999927100
4047638 21 11887954367400378294
42 15 18343865511035424725

> <PUBCHEM_SHAPE_MULTIPOLES>
255.8
8.21
1.17
0.94
1.99
0.23
-0.21
-1.86
-1.14
-0.82
0
0.53
-0.11
0.25

> <PUBCHEM_SHAPE_SELFOVERLAP>
525.83

> <PUBCHEM_SHAPE_VOLUME>
147.9

> <PUBCHEM_COORDINATE_TYPE>
2
5
10

$$$$
