539829
  -OEChem-11232108593D

 30 30  0     0  0  0  0  0  0999 V2000
    1.3244   -0.0726    0.8484 O   0  0  0  0  0  0  0  0  0  0  0  0
   -0.1078    1.9719   -0.3728 O   0  0  0  0  0  0  0  0  0  0  0  0
    1.7730   -0.9572   -1.2691 O   0  0  0  0  0  0  0  0  0  0  0  0
   -4.8246    0.1414   -0.7887 O   0  0  0  0  0  0  0  0  0  0  0  0
    3.5930   -0.2875    0.2082 C   0  0  0  0  0  0  0  0  0  0  0  0
    4.0425    1.1104   -0.2003 C   0  0  0  0  0  0  0  0  0  0  0  0
    4.4881   -1.3542   -0.4170 C   0  0  0  0  0  0  0  0  0  0  0  0
    2.1432   -0.4979   -0.1962 C   0  0  0  0  0  0  0  0  0  0  0  0
   -0.0358   -0.2266    0.5709 C   0  0  0  0  0  0  0  0  0  0  0  0
   -0.7212    0.8037   -0.0350 C   0  0  0  0  0  0  0  0  0  0  0  0
   -0.6412   -1.4149    0.9187 C   0  0  0  0  0  0  0  0  0  0  0  0
   -2.0794    0.6379   -0.3064 C   0  0  0  0  0  0  0  0  0  0  0  0
   -2.7184   -0.5542    0.0347 C   0  0  0  0  0  0  0  0  0  0  0  0
   -1.9992   -1.5805    0.6472 C   0  0  0  0  0  0  0  0  0  0  0  0
   -4.1340   -0.7279   -0.2498 C   0  0  0  0  0  0  0  0  0  0  0  0
   -0.1024    3.0083    0.6072 C   0  0  0  0  0  0  0  0  0  0  0  0
    3.6653   -0.3929    1.2978 H   0  0  0  0  0  0  0  0  0  0  0  0
    3.9750    1.2485   -1.2852 H   0  0  0  0  0  0  0  0  0  0  0  0
    3.4108    1.8742    0.2664 H   0  0  0  0  0  0  0  0  0  0  0  0
    5.0777    1.2938    0.1049 H   0  0  0  0  0  0  0  0  0  0  0  0
    4.4823   -1.2923   -1.5109 H   0  0  0  0  0  0  0  0  0  0  0  0
    4.1456   -2.3577   -0.1416 H   0  0  0  0  0  0  0  0  0  0  0  0
    5.5227   -1.2428   -0.0761 H   0  0  0  0  0  0  0  0  0  0  0  0
   -0.0821   -2.2135    1.3961 H   0  0  0  0  0  0  0  0  0  0  0  0
   -2.6261    1.4467   -0.7855 H   0  0  0  0  0  0  0  0  0  0  0  0
   -2.4829   -2.5153    0.9188 H   0  0  0  0  0  0  0  0  0  0  0  0
   -4.5830   -1.6926    0.0422 H   0  0  0  0  0  0  0  0  0  0  0  0
    0.4203    2.6803    1.5113 H   0  0  0  0  0  0  0  0  0  0  0  0
   -1.1256    3.3097    0.8523 H   0  0  0  0  0  0  0  0  0  0  0  0
    0.4265    3.8701    0.1911 H   0  0  0  0  0  0  0  0  0  0  0  0
  1  8  1  0  0  0  0
  1  9  1  0  0  0  0
  2 10  1  0  0  0  0
  2 16  1  0  0  0  0
  3  8  2  0  0  0  0
  4 15  2  0  0  0  0
  5  6  1  0  0  0  0
  5  7  1  0  0  0  0
  5  8  1  0  0  0  0
  5 17  1  0  0  0  0
  6 18  1  0  0  0  0
  6 19  1  0  0  0  0
  6 20  1  0  0  0  0
  7 21  1  0  0  0  0
  7 22  1  0  0  0  0
  7 23  1  0  0  0  0
  9 10  2  0  0  0  0
  9 11  1  0  0  0  0
 10 12  1  0  0  0  0
 11 14  2  0  0  0  0
 11 24  1  0  0  0  0
 12 13  2  0  0  0  0
 12 25  1  0  0  0  0
 13 14  1  0  0  0  0
 13 15  1  0  0  0  0
 14 26  1  0  0  0  0
 15 27  1  0  0  0  0
 16 28  1  0  0  0  0
 16 29  1  0  0  0  0
 16 30  1  0  0  0  0
M  END
> <PUBCHEM_COMPOUND_CID>
539829

> <PUBCHEM_CONFORMER_RMSD>
0.6

> <PUBCHEM_CONFORMER_DIVERSEORDER>
1
40
67
68
29
65
70
48
51
56
50
7
57
64
37
74
63
76
66
30
16
36
27
15
53
72
34
54
73
59
69
35
42
61
43
58
62
71
46
75
10
39
25
33
22
45
9
31
19
49
14
41
55
4
32
52
20
13
44
18
24
47
26
38
2
60
28
23
17
12
21
6
8
5
3
11

> <PUBCHEM_MMFF94_PARTIAL_CHARGES>
18
1 -0.23
10 0.08
11 -0.15
12 -0.15
13 0.09
14 -0.15
15 0.42
16 0.28
2 -0.36
24 0.15
25 0.15
26 0.15
27 0.06
3 -0.57
4 -0.57
5 0.06
8 0.66
9 0.08

> <PUBCHEM_EFFECTIVE_ROTOR_COUNT>
5

> <PUBCHEM_PHARMACOPHORE_FEATURES>
5
1 2 acceptor
1 3 acceptor
1 4 acceptor
3 5 6 7 hydrophobe
6 9 10 11 12 13 14 rings

> <PUBCHEM_HEAVY_ATOM_COUNT>
16

> <PUBCHEM_ATOM_DEF_STEREO_COUNT>
0

> <PUBCHEM_ATOM_UDEF_STEREO_COUNT>
0

> <PUBCHEM_BOND_DEF_STEREO_COUNT>
0

> <PUBCHEM_BOND_UDEF_STEREO_COUNT>
0

> <PUBCHEM_ISOTOPIC_ATOM_COUNT>
0

> <PUBCHEM_COMPONENT_COUNT>
1

> <PUBCHEM_CACTVS_TAUTO_COUNT>
1

> <PUBCHEM_CONFORMER_ID>
00083CB500000001

> <PUBCHEM_MMFF94_ENERGY>
50.6384

> <PUBCHEM_FEATURE_SELFOVERLAP>
25.373

> <PUBCHEM_SHAPE_FINGERPRINT>
10922049 32 8862948281290150737
11680986 33 18120373422013305209
12251169 10 10303803285641171770
14115302 16 17749396991525657766
14911166 2 18333725832501070751
14993402 34 18410005546757515155
15295992 7 12252197280561694534
15375358 24 18410855485924579711
15375462 6 18411986862668975446
15490181 7 17473558953317006577
16945 1 17676216757729908179
17959699 21 17749390390335140420
18186145 218 17458622337077732766
187816 3 18260550004476876571
200 152 17704070672806168474
20201158 50 18411985766761452206
20233049 118 18040426694601771557
20344682 1 18060699489862836838
204376 136 8646766698935895137
20510252 161 18337953394052962776
20645476 183 16950001452377277219
20645477 70 18343586218261439966
20871999 31 18336261250158524141
21029758 11 18412259558337134513
21119208 17 16950564376175558150
21501502 16 18124036728469238210
22213442 358 18267586990563701698
23402539 116 18339355271430845270
23557571 272 18342462491512642260
23559900 14 18333732438318975602
2748010 2 17826790636453750459
3250762 1 17758119585004599115
3286 77 17275098419095630282
4663303 62 18053944232071676193
532947 4 17767966794195992792
537710 114 18335144236465222276
68521 5 18337108969233788789
7364860 26 18054225702895902649
81228 2 18266197040389102096
9709674 26 18339651014574438382
9981440 41 14567919586566594340

> <PUBCHEM_SHAPE_MULTIPOLES>
305.8
7.85
2.1
0.9
1.25
1.69
-0.01
-2.24
-2.03
0.23
0.36
-0.03
-0.12
0.41

> <PUBCHEM_SHAPE_SELFOVERLAP>
630.57

> <PUBCHEM_SHAPE_VOLUME>
175.4

> <PUBCHEM_COORDINATE_TYPE>
2
5
10

$$$$
