540124
  -OEChem-11232109253D

 27 27  0     0  0  0  0  0  0999 V2000
   -0.1670   -2.6428   -0.4084 O   0  0  0  0  0  0  0  0  0  0  0  0
   -3.0028    0.3644   -0.1106 C   0  0  0  0  0  0  0  0  0  0  0  0
   -1.5133    0.6163   -0.0254 C   0  0  0  0  0  0  0  0  0  0  0  0
   -3.5625    0.0641    1.2798 C   0  0  0  0  0  0  0  0  0  0  0  0
   -3.7043    1.5773   -0.7223 C   0  0  0  0  0  0  0  0  0  0  0  0
   -0.5325   -0.3012   -0.1128 C   0  0  0  0  0  0  0  0  0  0  0  0
    0.8948    0.0284   -0.0194 C   0  0  0  0  0  0  0  0  0  0  0  0
    1.5183    0.0233    1.2210 C   0  0  0  0  0  0  0  0  0  0  0  0
    1.6018    0.3406   -1.1727 C   0  0  0  0  0  0  0  0  0  0  0  0
   -0.9598   -1.7130   -0.3130 C   0  0  0  0  0  0  0  0  0  0  0  0
    2.8747    0.3367    1.3099 C   0  0  0  0  0  0  0  0  0  0  0  0
    2.9582    0.6539   -1.0837 C   0  0  0  0  0  0  0  0  0  0  0  0
    3.5945    0.6519    0.1577 C   0  0  0  0  0  0  0  0  0  0  0  0
   -3.2372   -0.4655   -0.7832 H   0  0  0  0  0  0  0  0  0  0  0  0
   -1.2215    1.6521    0.1503 H   0  0  0  0  0  0  0  0  0  0  0  0
   -4.6421   -0.1151    1.2303 H   0  0  0  0  0  0  0  0  0  0  0  0
   -3.3936    0.8990    1.9695 H   0  0  0  0  0  0  0  0  0  0  0  0
   -3.0987   -0.8285    1.7133 H   0  0  0  0  0  0  0  0  0  0  0  0
   -3.3123    1.7953   -1.7221 H   0  0  0  0  0  0  0  0  0  0  0  0
   -4.7801    1.3939   -0.8189 H   0  0  0  0  0  0  0  0  0  0  0  0
   -3.5732    2.4741   -0.1060 H   0  0  0  0  0  0  0  0  0  0  0  0
    0.9693   -0.2211    2.1269 H   0  0  0  0  0  0  0  0  0  0  0  0
    1.1186    0.3454   -2.1463 H   0  0  0  0  0  0  0  0  0  0  0  0
   -2.0326   -1.9334   -0.3427 H   0  0  0  0  0  0  0  0  0  0  0  0
    3.3702    0.3351    2.2763 H   0  0  0  0  0  0  0  0  0  0  0  0
    3.5190    0.8992   -1.9808 H   0  0  0  0  0  0  0  0  0  0  0  0
    4.6507    0.8958    0.2269 H   0  0  0  0  0  0  0  0  0  0  0  0
  1 10  2  0  0  0  0
  2  3  1  0  0  0  0
  2  4  1  0  0  0  0
  2  5  1  0  0  0  0
  2 14  1  0  0  0  0
  3  6  2  3  0  0  0
  3 15  1  0  0  0  0
  4 16  1  0  0  0  0
  4 17  1  0  0  0  0
  4 18  1  0  0  0  0
  5 19  1  0  0  0  0
  5 20  1  0  0  0  0
  5 21  1  0  0  0  0
  6  7  1  0  0  0  0
  6 10  1  0  0  0  0
  7  8  2  0  0  0  0
  7  9  1  0  0  0  0
  8 11  1  0  0  0  0
  8 22  1  0  0  0  0
  9 12  2  0  0  0  0
  9 23  1  0  0  0  0
 10 24  1  0  0  0  0
 11 13  2  0  0  0  0
 11 25  1  0  0  0  0
 12 13  1  0  0  0  0
 12 26  1  0  0  0  0
 13 27  1  0  0  0  0
M  END
> <PUBCHEM_COMPOUND_CID>
540124

> <PUBCHEM_CONFORMER_RMSD>
0.6

> <PUBCHEM_CONFORMER_DIVERSEORDER>
1
6
3
5
4
2

> <PUBCHEM_MMFF94_PARTIAL_CHARGES>
18
1 -0.57
10 0.5
11 -0.15
12 -0.15
13 -0.15
15 0.15
2 0.14
22 0.15
23 0.15
24 0.06
25 0.15
26 0.15
27 0.15
3 -0.29
6 -0.01
7 0.03
8 -0.15
9 -0.15

> <PUBCHEM_EFFECTIVE_ROTOR_COUNT>
3

> <PUBCHEM_PHARMACOPHORE_FEATURES>
3
1 1 acceptor
3 2 4 5 hydrophobe
6 7 8 9 11 12 13 rings

> <PUBCHEM_HEAVY_ATOM_COUNT>
13

> <PUBCHEM_ATOM_DEF_STEREO_COUNT>
0

> <PUBCHEM_ATOM_UDEF_STEREO_COUNT>
0

> <PUBCHEM_BOND_DEF_STEREO_COUNT>
0

> <PUBCHEM_BOND_UDEF_STEREO_COUNT>
1

> <PUBCHEM_ISOTOPIC_ATOM_COUNT>
0

> <PUBCHEM_COMPONENT_COUNT>
1

> <PUBCHEM_CACTVS_TAUTO_COUNT>
1

> <PUBCHEM_CONFORMER_ID>
00083DDC00000001

> <PUBCHEM_MMFF94_ENERGY>
33.5495

> <PUBCHEM_FEATURE_SELFOVERLAP>
15.223

> <PUBCHEM_SHAPE_FINGERPRINT>
10465860 228 18122628249736917665
11543360 7 14836112278235733241
12138202 97 17845929740325828566
12251169 10 16805324366656866773
124424 183 17489588974478669138
12500047 106 18271520996477144982
12932764 1 17968649531842584284
13538477 17 17896036718449534867
13581323 91 18336826484738855282
13675066 3 17967807254549094216
13705890 14 14189568637476607628
14252887 29 11458432310030483540
15309172 13 18411141333510079851
15375462 478 17240481407722846989
15775835 57 18334852822691283689
15852999 172 18060421326348349942
15906896 17 18042127720489208803
16945 1 18411416236838719844
18186145 218 17846786186800849833
19422 9 17458063780738529944
20233049 118 18409162195358665432
20645477 56 18340488975625885704
20671657 53 12895076223427513936
21930827 45 18129945701208910270
22096605 113 15266767927524819008
23402539 116 18130776854880092788
23402655 69 15410905024028658233
23598291 2 17749955599694339694
25 1 17561093479117088390
276578 36 18341337712223070226
305870 269 18339919299458117351
6333449 129 17845933038934597183
633830 44 17632305544703444385
7364860 26 17913206464569854071
77492 1 17822283643290441614
81228 2 17910949467946162079
88987 49 18268988863984331206

> <PUBCHEM_SHAPE_MULTIPOLES>
261.66
6.47
1.56
1.25
1.91
1.06
0.24
-3.02
0.83
0.84
-0.52
-0.42
-0.07
0.09

> <PUBCHEM_SHAPE_SELFOVERLAP>
534.502

> <PUBCHEM_SHAPE_VOLUME>
151.7

> <PUBCHEM_COORDINATE_TYPE>
2
5
10

$$$$
