54281757
  -OEChem-11232109053D

 30 29  0     1  0  0  0  0  0999 V2000
   -2.3400    0.6955    1.1836 S   0  0  0  0  0  0  0  0  0  0  0  0
    0.6613   -0.5814   -0.3826 O   0  0  0  0  0  0  0  0  0  0  0  0
   -0.0051   -2.2428    1.0720 O   0  0  0  0  0  0  0  0  0  0  0  0
    2.8519    0.4566   -0.4784 C   0  0  0  0  0  0  0  0  0  0  0  0
    1.9627   -0.5806    0.2128 C   0  0  0  0  0  0  0  0  0  0  0  0
   -2.1119    0.1095   -0.5355 C   0  0  1  0  0  0  0  0  0  0  0  0
   -1.5593   -1.3210   -0.5592 C   0  0  0  0  0  0  0  0  0  0  0  0
    2.2662    1.8647   -0.3538 C   0  0  0  0  0  0  0  0  0  0  0  0
    4.2650    0.4166    0.0992 C   0  0  0  0  0  0  0  0  0  0  0  0
   -0.2290   -1.4698    0.1505 C   0  0  0  0  0  0  0  0  0  0  0  0
   -3.4555    0.1840   -1.2556 C   0  0  0  0  0  0  0  0  0  0  0  0
   -2.3063    2.4688    0.8471 C   0  0  0  0  0  0  0  0  0  0  0  0
    2.9007    0.2158   -1.5480 H   0  0  0  0  0  0  0  0  0  0  0  0
   -1.3994    0.7741   -1.0370 H   0  0  0  0  0  0  0  0  0  0  0  0
    1.8697   -0.3502    1.2814 H   0  0  0  0  0  0  0  0  0  0  0  0
    2.4033   -1.5789    0.1028 H   0  0  0  0  0  0  0  0  0  0  0  0
   -2.2682   -2.0163   -0.0917 H   0  0  0  0  0  0  0  0  0  0  0  0
   -1.4218   -1.6643   -1.5918 H   0  0  0  0  0  0  0  0  0  0  0  0
    2.1603    2.1586    0.6960 H   0  0  0  0  0  0  0  0  0  0  0  0
    1.2790    1.9262   -0.8236 H   0  0  0  0  0  0  0  0  0  0  0  0
    2.9125    2.5985   -0.8471 H   0  0  0  0  0  0  0  0  0  0  0  0
    4.2658    0.6613    1.1669 H   0  0  0  0  0  0  0  0  0  0  0  0
    4.9152    1.1337   -0.4130 H   0  0  0  0  0  0  0  0  0  0  0  0
    4.7061   -0.5785   -0.0209 H   0  0  0  0  0  0  0  0  0  0  0  0
   -4.2137   -0.4425   -0.7720 H   0  0  0  0  0  0  0  0  0  0  0  0
   -3.3498   -0.1709   -2.2872 H   0  0  0  0  0  0  0  0  0  0  0  0
   -3.8389    1.2076   -1.3111 H   0  0  0  0  0  0  0  0  0  0  0  0
   -2.3664    3.0099    1.7955 H   0  0  0  0  0  0  0  0  0  0  0  0
   -3.1564    2.7712    0.2316 H   0  0  0  0  0  0  0  0  0  0  0  0
   -1.3722    2.7507    0.3538 H   0  0  0  0  0  0  0  0  0  0  0  0
  1  6  1  0  0  0  0
  1 12  1  0  0  0  0
  2  5  1  0  0  0  0
  2 10  1  0  0  0  0
  3 10  2  0  0  0  0
  4  5  1  0  0  0  0
  4  8  1  0  0  0  0
  4  9  1  0  0  0  0
  4 13  1  0  0  0  0
  5 15  1  0  0  0  0
  5 16  1  0  0  0  0
  6  7  1  0  0  0  0
  6 11  1  0  0  0  0
  6 14  1  0  0  0  0
  7 10  1  0  0  0  0
  7 17  1  0  0  0  0
  7 18  1  0  0  0  0
  8 19  1  0  0  0  0
  8 20  1  0  0  0  0
  8 21  1  0  0  0  0
  9 22  1  0  0  0  0
  9 23  1  0  0  0  0
  9 24  1  0  0  0  0
 11 25  1  0  0  0  0
 11 26  1  0  0  0  0
 11 27  1  0  0  0  0
 12 28  1  0  0  0  0
 12 29  1  0  0  0  0
 12 30  1  0  0  0  0
M  END
> <PUBCHEM_COMPOUND_CID>
54281757

> <PUBCHEM_CONFORMER_RMSD>
0.8

> <PUBCHEM_CONFORMER_DIVERSEORDER>
1
118
83
55
226
189
76
139
4
141
3
173
220
19
22
210
63
104
114
95
56
178
223
13
219
38
216
31
42
192
131
44
177
130
140
147
14
180
152
27
18
228
41
124
71
25
91
87
2
182
94
125
20
111
112
7
195
40
88
135
171
57
133
37
218
108
21
186
97
167
184
191
190
136
119
84
96
203
183
74
85
185
66
117
132
46
29
36
174
163
105
221
158
122
198
156
120
170
142
32
100
116
154
61
17
146
143
207
201
187
222
82
51
64
121
172
149
5
179
208
214
72
49
107
202
48
33
30
106
34
213
68
89
54
145
45
35
157
127
211
225
164
6
194
8
98
215
166
103
70
109
81
16
206
212
217
86
159
162
144
23
115
102
53
224
93
200
193
73
176
175
9
138
155
67
28
75
151
62
50
15
209
43
69
150
188
123
11
60
92
65
199
128
165
10
153
197
58
77
168
39
26
169
110
90
80
204
134
59
160
227
47
129
79
205
12
52
78
161
24
113
101
126
196
148
181
99
137

> <PUBCHEM_MMFF94_PARTIAL_CHARGES>
8
1 -0.46
10 0.66
12 0.23
2 -0.43
3 -0.57
5 0.28
6 0.23
7 0.06

> <PUBCHEM_EFFECTIVE_ROTOR_COUNT>
6

> <PUBCHEM_PHARMACOPHORE_FEATURES>
4
1 11 hydrophobe
1 12 hydrophobe
1 3 acceptor
3 4 8 9 hydrophobe

> <PUBCHEM_HEAVY_ATOM_COUNT>
12

> <PUBCHEM_ATOM_DEF_STEREO_COUNT>
0

> <PUBCHEM_ATOM_UDEF_STEREO_COUNT>
1

> <PUBCHEM_BOND_DEF_STEREO_COUNT>
0

> <PUBCHEM_BOND_UDEF_STEREO_COUNT>
0

> <PUBCHEM_ISOTOPIC_ATOM_COUNT>
0

> <PUBCHEM_COMPONENT_COUNT>
1

> <PUBCHEM_CACTVS_TAUTO_COUNT>
1

> <PUBCHEM_CONFORMER_ID>
033C461D00000001

> <PUBCHEM_MMFF94_ENERGY>
16.1562

> <PUBCHEM_FEATURE_SELFOVERLAP>
20.298

> <PUBCHEM_SHAPE_FINGERPRINT>
10149128 111 18411986857688244788
12162725 195 18271807955810562116
13618510 140 18408606928879846204
14123260 362 18337686307517406588
14251711 518 18052544266069940361
15279308 10 18053661374352528537
15775835 57 18186513310951912638
18186145 218 18410580556747066686
20281407 28 8790890653140261446
20300324 65 17775562065515906205
20361792 2 11023820665280772795
20510252 161 17973165324681836586
20653085 51 18129679511931141775
20828058 34 18410853286895848190
21028194 46 18260268593940532182
21524375 3 18408322181069477790
228727 97 18201709648823174295
22926399 37 18410847768411687589
22959321 54 18341048635191272616
23402539 116 18060128886272562471
23557571 272 17342915333865769138
305870 269 18263930938365735762
353137 74 18341324527058489217

> <PUBCHEM_SHAPE_MULTIPOLES>
239.07
6.32
2.21
1.11
4.13
0.51
0.06
2.6
-0.96
-0.77
0.62
-0.86
0
-0.8

> <PUBCHEM_SHAPE_SELFOVERLAP>
427.538

> <PUBCHEM_SHAPE_VOLUME>
157

> <PUBCHEM_COORDINATE_TYPE>
2
5
10

$$$$
