543562
  -OEChem-11232109273D

 16 16  0     1  0  0  0  0  0999 V2000
   -0.0569    0.8696    0.5457 O   0  0  0  0  0  0  0  0  0  0  0  0
   -0.6223   -1.1842   -0.2937 N   0  0  0  0  0  0  0  0  0  0  0  0
    1.1787    0.1694    0.4544 C   0  0  1  0  0  0  0  0  0  0  0  0
    0.7622   -1.2681    0.1932 C   0  0  0  0  0  0  0  0  0  0  0  0
    2.0091    0.7647   -0.6739 C   0  0  0  0  0  0  0  0  0  0  0  0
   -0.9637    0.0292   -0.0009 C   0  0  0  0  0  0  0  0  0  0  0  0
   -2.3070    0.6193   -0.2247 C   0  0  0  0  0  0  0  0  0  0  0  0
    1.7203    0.2573    1.4021 H   0  0  0  0  0  0  0  0  0  0  0  0
    1.4092   -1.7733   -0.5307 H   0  0  0  0  0  0  0  0  0  0  0  0
    0.7733   -1.8511    1.1213 H   0  0  0  0  0  0  0  0  0  0  0  0
    2.9620    0.2382   -0.7825 H   0  0  0  0  0  0  0  0  0  0  0  0
    1.4739    0.7225   -1.6290 H   0  0  0  0  0  0  0  0  0  0  0  0
    2.2140    1.8222   -0.4759 H   0  0  0  0  0  0  0  0  0  0  0  0
   -2.2285    1.4471   -0.9343 H   0  0  0  0  0  0  0  0  0  0  0  0
   -2.7092    0.9861    0.7232 H   0  0  0  0  0  0  0  0  0  0  0  0
   -2.9871   -0.1341   -0.6308 H   0  0  0  0  0  0  0  0  0  0  0  0
  1  3  1  0  0  0  0
  1  6  1  0  0  0  0
  2  4  1  0  0  0  0
  2  6  2  0  0  0  0
  3  4  1  0  0  0  0
  3  5  1  0  0  0  0
  3  8  1  0  0  0  0
  4  9  1  0  0  0  0
  4 10  1  0  0  0  0
  5 11  1  0  0  0  0
  5 12  1  0  0  0  0
  5 13  1  0  0  0  0
  6  7  1  0  0  0  0
  7 14  1  0  0  0  0
  7 15  1  0  0  0  0
  7 16  1  0  0  0  0
M  END
> <PUBCHEM_COMPOUND_CID>
543562

> <PUBCHEM_CONFORMER_RMSD>
0.4

> <PUBCHEM_CONFORMER_DIVERSEORDER>
2
1

> <PUBCHEM_MMFF94_PARTIAL_CHARGES>
6
1 -0.43
2 -0.7
3 0.28
4 0.25
6 0.54
7 0.06

> <PUBCHEM_EFFECTIVE_ROTOR_COUNT>
0.6

> <PUBCHEM_PHARMACOPHORE_FEATURES>
1
5 1 2 3 4 6 rings

> <PUBCHEM_HEAVY_ATOM_COUNT>
7

> <PUBCHEM_ATOM_DEF_STEREO_COUNT>
0

> <PUBCHEM_ATOM_UDEF_STEREO_COUNT>
1

> <PUBCHEM_BOND_DEF_STEREO_COUNT>
0

> <PUBCHEM_BOND_UDEF_STEREO_COUNT>
0

> <PUBCHEM_ISOTOPIC_ATOM_COUNT>
0

> <PUBCHEM_COMPONENT_COUNT>
1

> <PUBCHEM_CACTVS_TAUTO_COUNT>
1

> <PUBCHEM_CONFORMER_ID>
00084B4A00000002

> <PUBCHEM_MMFF94_ENERGY>
8.534

> <PUBCHEM_FEATURE_SELFOVERLAP>
5.074

> <PUBCHEM_SHAPE_FINGERPRINT>
16714656 1 18266467674773061164
20096714 4 18335138708662619780
21040471 1 18412536626344706787
29004967 10 17822294509420524657
5943 1 12346876042288375010

> <PUBCHEM_SHAPE_MULTIPOLES>
133.21
2.53
1.24
0.75
0.66
0.32
-0.01
-0.87
-0.42
-0.19
-0.06
-0.14
-0.07
-0.16

> <PUBCHEM_SHAPE_SELFOVERLAP>
261.678

> <PUBCHEM_SHAPE_VOLUME>
81.9

> <PUBCHEM_COORDINATE_TYPE>
2
5
10

$$$$
