544155
  -OEChem-11232109213D

 32 31  0     1  0  0  0  0  0999 V2000
   -3.5055    2.4770    0.0091 O   0  0  0  0  0  0  0  0  0  0  0  0
   -0.6486   -1.3197   -0.0337 C   0  0  0  0  0  0  0  0  0  0  0  0
   -2.1726   -1.1041   -0.1627 C   0  0  1  0  0  0  0  0  0  0  0  0
    0.1867   -0.3187   -0.8403 C   0  0  0  0  0  0  0  0  0  0  0  0
    1.6583   -0.5624   -0.6484 C   0  0  0  0  0  0  0  0  0  0  0  0
   -2.9086   -2.2436    0.5551 C   0  0  0  0  0  0  0  0  0  0  0  0
    2.4714    0.0326    0.2458 C   0  0  0  0  0  0  0  0  0  0  0  0
   -2.5823    0.2808    0.2927 C   0  0  0  0  0  0  0  0  0  0  0  0
    3.9541   -0.2369    0.3574 C   0  0  0  0  0  0  0  0  0  0  0  0
    1.9303    1.0677    1.1963 C   0  0  0  0  0  0  0  0  0  0  0  0
    4.7769    0.6936   -0.5216 C   0  0  0  0  0  0  0  0  0  0  0  0
   -3.1602    1.2336   -0.4497 C   0  0  0  0  0  0  0  0  0  0  0  0
   -0.4007   -2.3368   -0.3664 H   0  0  0  0  0  0  0  0  0  0  0  0
   -0.3653   -1.2640    1.0265 H   0  0  0  0  0  0  0  0  0  0  0  0
   -2.4232   -1.1953   -1.2290 H   0  0  0  0  0  0  0  0  0  0  0  0
   -0.0723    0.7162   -0.5994 H   0  0  0  0  0  0  0  0  0  0  0  0
   -0.0408   -0.4327   -1.9079 H   0  0  0  0  0  0  0  0  0  0  0  0
    2.0931   -1.3052   -1.3154 H   0  0  0  0  0  0  0  0  0  0  0  0
   -2.6234   -3.2168    0.1418 H   0  0  0  0  0  0  0  0  0  0  0  0
   -2.6821   -2.2477    1.6269 H   0  0  0  0  0  0  0  0  0  0  0  0
   -3.9927   -2.1350    0.4415 H   0  0  0  0  0  0  0  0  0  0  0  0
   -2.3747    0.5047    1.3381 H   0  0  0  0  0  0  0  0  0  0  0  0
    4.1600   -1.2729    0.0599 H   0  0  0  0  0  0  0  0  0  0  0  0
    4.2783   -0.1540    1.4012 H   0  0  0  0  0  0  0  0  0  0  0  0
    2.2787    2.0641    0.9057 H   0  0  0  0  0  0  0  0  0  0  0  0
    2.2900    0.8650    2.2114 H   0  0  0  0  0  0  0  0  0  0  0  0
    0.8407    1.0946    1.2652 H   0  0  0  0  0  0  0  0  0  0  0  0
    4.5007    0.5916   -1.5764 H   0  0  0  0  0  0  0  0  0  0  0  0
    5.8417    0.4575   -0.4274 H   0  0  0  0  0  0  0  0  0  0  0  0
    4.6369    1.7402   -0.2317 H   0  0  0  0  0  0  0  0  0  0  0  0
   -3.4107    1.1216   -1.4945 H   0  0  0  0  0  0  0  0  0  0  0  0
   -3.2592    2.5312    0.9487 H   0  0  0  0  0  0  0  0  0  0  0  0
  1 12  1  0  0  0  0
  1 32  1  0  0  0  0
  2  3  1  0  0  0  0
  2  4  1  0  0  0  0
  2 13  1  0  0  0  0
  2 14  1  0  0  0  0
  3  6  1  0  0  0  0
  3  8  1  0  0  0  0
  3 15  1  0  0  0  0
  4  5  1  0  0  0  0
  4 16  1  0  0  0  0
  4 17  1  0  0  0  0
  5  7  2  3  0  0  0
  5 18  1  0  0  0  0
  6 19  1  0  0  0  0
  6 20  1  0  0  0  0
  6 21  1  0  0  0  0
  7  9  1  0  0  0  0
  7 10  1  0  0  0  0
  8 12  2  3  0  0  0
  8 22  1  0  0  0  0
  9 11  1  0  0  0  0
  9 23  1  0  0  0  0
  9 24  1  0  0  0  0
 10 25  1  0  0  0  0
 10 26  1  0  0  0  0
 10 27  1  0  0  0  0
 11 28  1  0  0  0  0
 11 29  1  0  0  0  0
 11 30  1  0  0  0  0
 12 31  1  0  0  0  0
M  END
> <PUBCHEM_COMPOUND_CID>
544155

> <PUBCHEM_CONFORMER_RMSD>
0.6

> <PUBCHEM_CONFORMER_DIVERSEORDER>
1
107
154
133
70
139
98
55
93
15
3
77
130
96
112
78
150
90
135
110
14
148
131
149
28
48
126
56
67
127
32
137
99
59
141
105
157
6
89
85
145
46
138
8
63
91
9
92
111
158
17
41
156
60
76
25
151
11
146
134
143
42
114
83
58
68
5
33
159
23
37
66
52
117
74
121
29
36
147
82
97
79
65
69
109
144
50
113
103
81
153
31
123
45
160
104
100
115
152
106
2
34
57
80
118
54
38
30
62
132
18
95
21
129
102
119
142
125
47
116
27
87
7
128
73
40
19
61
124
136
122
22
53
72
155
39
13
43
51
75
101
4
88
49
71
44
94
16
64
12
108
86
120
20
84
35
140
10
26
24

> <PUBCHEM_MMFF94_PARTIAL_CHARGES>
13
1 -0.53
10 0.14
12 -0.07
18 0.15
22 0.15
3 0.14
31 0.15
32 0.45
4 0.14
5 -0.29
7 -0.28
8 -0.29
9 0.14

> <PUBCHEM_EFFECTIVE_ROTOR_COUNT>
5

> <PUBCHEM_PHARMACOPHORE_FEATURES>
5
1 1 donor
1 10 hydrophobe
1 11 hydrophobe
1 6 hydrophobe
5 2 3 4 5 8 hydrophobe

> <PUBCHEM_HEAVY_ATOM_COUNT>
12

> <PUBCHEM_ATOM_DEF_STEREO_COUNT>
0

> <PUBCHEM_ATOM_UDEF_STEREO_COUNT>
1

> <PUBCHEM_BOND_DEF_STEREO_COUNT>
0

> <PUBCHEM_BOND_UDEF_STEREO_COUNT>
2

> <PUBCHEM_ISOTOPIC_ATOM_COUNT>
0

> <PUBCHEM_COMPONENT_COUNT>
1

> <PUBCHEM_CACTVS_TAUTO_COUNT>
2

> <PUBCHEM_CONFORMER_ID>
00084D9B00000001

> <PUBCHEM_MMFF94_ENERGY>
9.6584

> <PUBCHEM_FEATURE_SELFOVERLAP>
25.376

> <PUBCHEM_SHAPE_FINGERPRINT>
10608611 8 18271801367156708672
124424 183 18201996612567707074
12500047 106 18409724036935736943
12932764 1 17917427691582911438
13296909 8 18335419101597767959
14252887 29 15068622643718358994
14445660 50 18040716965624083678
15239154 128 18334861653793131204
15653759 3 18341330093040660578
15775835 57 18261672575857755593
17041 50 17917993906054135296
17834069 15 18410290294124758958
17834072 32 18410295787240835261
18186145 218 16845292791258352730
19026448 5 17895191125873652954
19422 9 17895191134374098626
201361 129 18114458981606263354
20233049 118 18272368677071829464
20645477 56 18410862036182066909
20645477 70 17131844105785628246
20711983 171 18335138691825544644
20828058 21 18340491161837982262
20871998 22 9294128350992929447
21524375 3 18267296526858672671
22926399 65 18412546483516489456
2306618 200 18131358531096510419
23402539 116 18338789105196129823
23500284 214 18270688563048217817
23503958 8 18040713709859948042
23557571 272 18201445808860861855
305870 269 18261952929964481715
6430166 295 18340200804673568496

> <PUBCHEM_SHAPE_MULTIPOLES>
241.09
8.3
1.97
0.92
5.45
0.43
0.07
2.23
-0.02
-3.08
0.2
0.32
0.06
0.5

> <PUBCHEM_SHAPE_SELFOVERLAP>
443.526

> <PUBCHEM_SHAPE_VOLUME>
153.2

> <PUBCHEM_COORDINATE_TYPE>
2
5
10

$$$$
