544628
  -OEChem-11232109073D

 21 21  0     1  0  0  0  0  0999 V2000
    0.6900   -1.0543    0.0373 O   0  0  0  0  0  0  0  0  0  0  0  0
    2.8229   -0.3352    0.0914 O   0  0  0  0  0  0  0  0  0  0  0  0
   -1.2033    0.5152   -0.2754 C   0  0  2  0  0  0  0  0  0  0  0  0
   -0.7111   -0.8080    0.3195 C   0  0  1  0  0  0  0  0  0  0  0  0
   -0.2565    1.6130    0.1978 C   0  0  0  0  0  0  0  0  0  0  0  0
    1.1476    1.3202   -0.2867 C   0  0  0  0  0  0  0  0  0  0  0  0
   -2.6409    0.8448    0.1231 C   0  0  0  0  0  0  0  0  0  0  0  0
   -1.4731   -2.0186   -0.2109 C   0  0  0  0  0  0  0  0  0  0  0  0
    1.6244   -0.0769    0.0039 C   0  0  0  0  0  0  0  0  0  0  0  0
   -1.1492    0.4643   -1.3713 H   0  0  0  0  0  0  0  0  0  0  0  0
   -0.8078   -0.7946    1.4125 H   0  0  0  0  0  0  0  0  0  0  0  0
   -0.2663    1.6741    1.2936 H   0  0  0  0  0  0  0  0  0  0  0  0
   -0.5761    2.5908   -0.1813 H   0  0  0  0  0  0  0  0  0  0  0  0
    1.8399    2.0247    0.1879 H   0  0  0  0  0  0  0  0  0  0  0  0
    1.2091    1.4653   -1.3714 H   0  0  0  0  0  0  0  0  0  0  0  0
   -2.7608    0.8512    1.2117 H   0  0  0  0  0  0  0  0  0  0  0  0
   -2.9304    1.8317   -0.2536 H   0  0  0  0  0  0  0  0  0  0  0  0
   -3.3459    0.1193   -0.2935 H   0  0  0  0  0  0  0  0  0  0  0  0
   -2.5287   -1.9950    0.0726 H   0  0  0  0  0  0  0  0  0  0  0  0
   -1.4023   -2.0757   -1.3027 H   0  0  0  0  0  0  0  0  0  0  0  0
   -1.0368   -2.9448    0.1797 H   0  0  0  0  0  0  0  0  0  0  0  0
  1  4  1  0  0  0  0
  1  9  1  0  0  0  0
  2  9  2  0  0  0  0
  3  4  1  0  0  0  0
  3  5  1  0  0  0  0
  3  7  1  0  0  0  0
  3 10  1  0  0  0  0
  4  8  1  0  0  0  0
  4 11  1  0  0  0  0
  5  6  1  0  0  0  0
  5 12  1  0  0  0  0
  5 13  1  0  0  0  0
  6  9  1  0  0  0  0
  6 14  1  0  0  0  0
  6 15  1  0  0  0  0
  7 16  1  0  0  0  0
  7 17  1  0  0  0  0
  7 18  1  0  0  0  0
  8 19  1  0  0  0  0
  8 20  1  0  0  0  0
  8 21  1  0  0  0  0
M  END
> <PUBCHEM_COMPOUND_CID>
544628

> <PUBCHEM_CONFORMER_RMSD>
0.4

> <PUBCHEM_CONFORMER_DIVERSEORDER>
4
5
7
6
3
1
2
8

> <PUBCHEM_MMFF94_PARTIAL_CHARGES>
5
1 -0.43
2 -0.57
4 0.28
6 0.06
9 0.66

> <PUBCHEM_EFFECTIVE_ROTOR_COUNT>
1

> <PUBCHEM_PHARMACOPHORE_FEATURES>
2
1 2 acceptor
6 1 3 4 5 6 9 rings

> <PUBCHEM_HEAVY_ATOM_COUNT>
9

> <PUBCHEM_ATOM_DEF_STEREO_COUNT>
0

> <PUBCHEM_ATOM_UDEF_STEREO_COUNT>
2

> <PUBCHEM_BOND_DEF_STEREO_COUNT>
0

> <PUBCHEM_BOND_UDEF_STEREO_COUNT>
0

> <PUBCHEM_ISOTOPIC_ATOM_COUNT>
0

> <PUBCHEM_COMPONENT_COUNT>
1

> <PUBCHEM_CACTVS_TAUTO_COUNT>
1

> <PUBCHEM_CONFORMER_ID>
00084F7400000004

> <PUBCHEM_MMFF94_ENERGY>
14.7934

> <PUBCHEM_FEATURE_SELFOVERLAP>
10.148

> <PUBCHEM_SHAPE_FINGERPRINT>
15310529 11 16660363636706089948
16714656 1 18337674113719890700
16945 1 18410009901337375636
18185500 45 18407758144573447202
193761 8 18122344850388024553
21040471 1 18410856516753563041
23235685 24 18339638936656409764
23552423 10 18115869787799245308
241688 4 17473832718779675328
2748010 2 18267021841565925884
29004967 10 18115316565809911329
5084963 1 18058165020892281809

> <PUBCHEM_SHAPE_MULTIPOLES>
173.48
3.09
1.89
0.64
0.58
0.31
0.01
0.04
-0.04
-0.69
0.05
-0.05
-0.02
-0.14

> <PUBCHEM_SHAPE_SELFOVERLAP>
339.553

> <PUBCHEM_SHAPE_VOLUME>
104.6

> <PUBCHEM_COORDINATE_TYPE>
2
5
10

$$$$
