5462986
  -OEChem-11232109433D

 23 22  0     0  0  0  0  0  0999 V2000
   -2.6418   -0.4403    1.1657 O   0  0  0  0  0  0  0  0  0  0  0  0
    2.4108   -0.0313    0.3345 C   0  0  0  0  0  0  0  0  0  0  0  0
    1.3511   -0.7990   -0.4781 C   0  0  0  0  0  0  0  0  0  0  0  0
    2.0139    1.4426    0.4478 C   0  0  0  0  0  0  0  0  0  0  0  0
    3.8063   -0.1452   -0.2850 C   0  0  0  0  0  0  0  0  0  0  0  0
   -0.0351   -0.6669    0.0894 C   0  0  0  0  0  0  0  0  0  0  0  0
   -1.0453   -0.0789   -0.5652 C   0  0  0  0  0  0  0  0  0  0  0  0
   -2.3950    0.0223    0.0544 C   0  0  0  0  0  0  0  0  0  0  0  0
   -3.4647    0.6967   -0.7634 C   0  0  0  0  0  0  0  0  0  0  0  0
    2.4556   -0.4524    1.3473 H   0  0  0  0  0  0  0  0  0  0  0  0
    1.6133   -1.8641   -0.4982 H   0  0  0  0  0  0  0  0  0  0  0  0
    1.3711   -0.4582   -1.5215 H   0  0  0  0  0  0  0  0  0  0  0  0
    2.7968    2.0127    0.9605 H   0  0  0  0  0  0  0  0  0  0  0  0
    1.0957    1.5755    1.0285 H   0  0  0  0  0  0  0  0  0  0  0  0
    1.8662    1.8939   -0.5395 H   0  0  0  0  0  0  0  0  0  0  0  0
    3.8295    0.2844   -1.2922 H   0  0  0  0  0  0  0  0  0  0  0  0
    4.1106   -1.1946   -0.3570 H   0  0  0  0  0  0  0  0  0  0  0  0
    4.5488    0.3788    0.3259 H   0  0  0  0  0  0  0  0  0  0  0  0
   -0.1875   -1.0832    1.0819 H   0  0  0  0  0  0  0  0  0  0  0  0
   -0.9085    0.3390   -1.5563 H   0  0  0  0  0  0  0  0  0  0  0  0
   -4.0680    1.3331   -0.1097 H   0  0  0  0  0  0  0  0  0  0  0  0
   -3.0293    1.3320   -1.5395 H   0  0  0  0  0  0  0  0  0  0  0  0
   -4.0964   -0.0635   -1.2296 H   0  0  0  0  0  0  0  0  0  0  0  0
  1  8  2  0  0  0  0
  2  3  1  0  0  0  0
  2  4  1  0  0  0  0
  2  5  1  0  0  0  0
  2 10  1  0  0  0  0
  3  6  1  0  0  0  0
  3 11  1  0  0  0  0
  3 12  1  0  0  0  0
  4 13  1  0  0  0  0
  4 14  1  0  0  0  0
  4 15  1  0  0  0  0
  5 16  1  0  0  0  0
  5 17  1  0  0  0  0
  5 18  1  0  0  0  0
  6  7  2  0  0  0  0
  6 19  1  0  0  0  0
  7  8  1  0  0  0  0
  7 20  1  0  0  0  0
  8  9  1  0  0  0  0
  9 21  1  0  0  0  0
  9 22  1  0  0  0  0
  9 23  1  0  0  0  0
M  END
> <PUBCHEM_COMPOUND_CID>
5462986

> <PUBCHEM_CONFORMER_RMSD>
0.6

> <PUBCHEM_CONFORMER_DIVERSEORDER>
1
5
4
2
3
6
7

> <PUBCHEM_MMFF94_PARTIAL_CHARGES>
8
1 -0.57
19 0.15
20 0.15
3 0.14
6 -0.29
7 -0.14
8 0.49
9 0.06

> <PUBCHEM_EFFECTIVE_ROTOR_COUNT>
3

> <PUBCHEM_PHARMACOPHORE_FEATURES>
2
1 1 acceptor
3 2 4 5 hydrophobe

> <PUBCHEM_HEAVY_ATOM_COUNT>
9

> <PUBCHEM_ATOM_DEF_STEREO_COUNT>
0

> <PUBCHEM_ATOM_UDEF_STEREO_COUNT>
0

> <PUBCHEM_BOND_DEF_STEREO_COUNT>
1

> <PUBCHEM_BOND_UDEF_STEREO_COUNT>
0

> <PUBCHEM_ISOTOPIC_ATOM_COUNT>
0

> <PUBCHEM_COMPONENT_COUNT>
1

> <PUBCHEM_CACTVS_TAUTO_COUNT>
5

> <PUBCHEM_CONFORMER_ID>
00535BCA00000001

> <PUBCHEM_MMFF94_ENERGY>
8.6905

> <PUBCHEM_FEATURE_SELFOVERLAP>
10.148

> <PUBCHEM_SHAPE_FINGERPRINT>
10219947 1 18130788941155128734
10857977 72 17531248400149315651
11062470 55 13334735725907187815
124424 183 18261385616329081586
12932764 1 18334290985134489338
14325111 11 18342172306025614126
14390081 3 18408598141671975853
190213 19 17132112450519494726
20201158 50 18410854330551762952
20645464 45 18260271828430623107
21119208 17 17203886349204043349
21293036 1 12751232627397610790
23402539 116 13830127256843570512
23552423 10 15840724958760597135
3248919 1 17203611496998376759

> <PUBCHEM_SHAPE_MULTIPOLES>
179.35
6.34
1.05
0.89
0.28
0.3
-0.08
0.84
0.49
-0.46
-0.02
0.5
-0.02
0.42

> <PUBCHEM_SHAPE_SELFOVERLAP>
328.546

> <PUBCHEM_SHAPE_VOLUME>
114.6

> <PUBCHEM_COORDINATE_TYPE>
2
5
10

$$$$
