5463228
  -OEChem-11232109263D

 27 27  0     0  0  0  0  0  0999 V2000
   -3.1138   -1.1066   -0.0094 O   0  0  0  0  0  0  0  0  0  0  0  0
   -3.0344    1.1565    0.6544 O   0  0  0  0  0  0  0  0  0  0  0  0
   -2.4641    0.1548   -0.1989 C   0  0  0  0  0  0  0  0  0  0  0  0
    1.4268    0.1559   -0.2679 C   0  0  0  0  0  0  0  0  0  0  0  0
   -1.0226    0.0148    0.2051 C   0  0  0  0  0  0  0  0  0  0  0  0
    0.0028    0.2736   -0.6217 C   0  0  0  0  0  0  0  0  0  0  0  0
    1.7956   -0.6239    0.8174 C   0  0  0  0  0  0  0  0  0  0  0  0
    2.3738    0.8261   -1.0265 C   0  0  0  0  0  0  0  0  0  0  0  0
    3.1450   -0.7360    1.1524 C   0  0  0  0  0  0  0  0  0  0  0  0
    3.7232    0.7139   -0.6915 C   0  0  0  0  0  0  0  0  0  0  0  0
    4.1087   -0.0671    0.3980 C   0  0  0  0  0  0  0  0  0  0  0  0
   -2.5322   -2.1481   -0.7836 C   0  0  0  0  0  0  0  0  0  0  0  0
   -4.4089    1.3860    0.3720 C   0  0  0  0  0  0  0  0  0  0  0  0
   -2.5703    0.4730   -1.2439 H   0  0  0  0  0  0  0  0  0  0  0  0
   -0.8586   -0.2887    1.2353 H   0  0  0  0  0  0  0  0  0  0  0  0
   -0.2072    0.6045   -1.6364 H   0  0  0  0  0  0  0  0  0  0  0  0
    1.0832   -1.1800    1.4185 H   0  0  0  0  0  0  0  0  0  0  0  0
    2.0893    1.4394   -1.8774 H   0  0  0  0  0  0  0  0  0  0  0  0
    3.4463   -1.3482    1.9975 H   0  0  0  0  0  0  0  0  0  0  0  0
    4.4739    1.2346   -1.2789 H   0  0  0  0  0  0  0  0  0  0  0  0
    5.1595   -0.1555    0.6581 H   0  0  0  0  0  0  0  0  0  0  0  0
   -1.5747   -2.4692   -0.3636 H   0  0  0  0  0  0  0  0  0  0  0  0
   -2.4140   -1.8453   -1.8288 H   0  0  0  0  0  0  0  0  0  0  0  0
   -3.2096   -3.0064   -0.7522 H   0  0  0  0  0  0  0  0  0  0  0  0
   -4.5440    1.6790   -0.6736 H   0  0  0  0  0  0  0  0  0  0  0  0
   -4.7567    2.2032    1.0098 H   0  0  0  0  0  0  0  0  0  0  0  0
   -5.0056    0.4971    0.5962 H   0  0  0  0  0  0  0  0  0  0  0  0
  1  3  1  0  0  0  0
  1 12  1  0  0  0  0
  2  3  1  0  0  0  0
  2 13  1  0  0  0  0
  3  5  1  0  0  0  0
  3 14  1  0  0  0  0
  4  6  1  0  0  0  0
  4  7  2  0  0  0  0
  4  8  1  0  0  0  0
  5  6  2  0  0  0  0
  5 15  1  0  0  0  0
  6 16  1  0  0  0  0
  7  9  1  0  0  0  0
  7 17  1  0  0  0  0
  8 10  2  0  0  0  0
  8 18  1  0  0  0  0
  9 11  2  0  0  0  0
  9 19  1  0  0  0  0
 10 11  1  0  0  0  0
 10 20  1  0  0  0  0
 11 21  1  0  0  0  0
 12 22  1  0  0  0  0
 12 23  1  0  0  0  0
 12 24  1  0  0  0  0
 13 25  1  0  0  0  0
 13 26  1  0  0  0  0
 13 27  1  0  0  0  0
M  END
> <PUBCHEM_COMPOUND_CID>
5463228

> <PUBCHEM_CONFORMER_RMSD>
0.6

> <PUBCHEM_CONFORMER_DIVERSEORDER>
1
12
11
3
5
10
13
6
9
4
7
8
2

> <PUBCHEM_MMFF94_PARTIAL_CHARGES>
20
1 -0.56
10 -0.15
11 -0.15
12 0.28
13 0.28
15 0.15
16 0.15
17 0.15
18 0.15
19 0.15
2 -0.56
20 0.15
21 0.15
3 0.7
4 0.03
5 -0.29
6 -0.18
7 -0.15
8 -0.15
9 -0.15

> <PUBCHEM_EFFECTIVE_ROTOR_COUNT>
4

> <PUBCHEM_PHARMACOPHORE_FEATURES>
3
1 1 acceptor
1 2 acceptor
6 4 7 8 9 10 11 rings

> <PUBCHEM_HEAVY_ATOM_COUNT>
13

> <PUBCHEM_ATOM_DEF_STEREO_COUNT>
0

> <PUBCHEM_ATOM_UDEF_STEREO_COUNT>
0

> <PUBCHEM_BOND_DEF_STEREO_COUNT>
1

> <PUBCHEM_BOND_UDEF_STEREO_COUNT>
0

> <PUBCHEM_ISOTOPIC_ATOM_COUNT>
0

> <PUBCHEM_COMPONENT_COUNT>
1

> <PUBCHEM_CACTVS_TAUTO_COUNT>
1

> <PUBCHEM_CONFORMER_ID>
00535CBC00000001

> <PUBCHEM_MMFF94_ENERGY>
36.8634

> <PUBCHEM_FEATURE_SELFOVERLAP>
15.261

> <PUBCHEM_SHAPE_FINGERPRINT>
12251169 10 18334576811002709205
12346177 29 17988915695906162311
124424 183 16702020851054024538
12500047 106 18131628972006812135
12932764 1 18113051640623525460
13296908 3 16702305675883621566
13705890 14 13479129065229930888
13760787 19 18410577288266261838
13760787 5 17240201041174629222
14144814 61 18113334228070456098
14445660 50 18335140886216359057
15279307 12 18408884014537416347
15375358 24 16917345922339723137
15375462 189 18040714757768359008
15669948 3 18341893026062145407
15775835 57 18334298660267239217
18186145 218 16660362588913307530
19026448 4 17561366205699052294
19026448 5 18335138717463492532
19050596 39 18186800288019236128
19422 9 18334575771752544350
20279233 1 16558750113377326815
20281475 54 18187639215349180546
20645477 56 18201444662157536089
20645477 70 16733527360848124474
20715346 28 16630526271151291358
23402539 116 18342454855350823404
23402655 69 17967527965494316620
23559900 14 17846505798988760230
3248919 1 18343861112888693687
42 15 17023190387855421481
573450 72 18411410717943122043
581208 293 17458620155677217604
633830 44 17894926156419312014
77492 1 18261109703261244238

> <PUBCHEM_SHAPE_MULTIPOLES>
255.8
8.47
1.46
1.03
2
0.52
0.01
-1.44
1.01
1.57
-0.2
-0.44
0.07
-1.36

> <PUBCHEM_SHAPE_SELFOVERLAP>
515.228

> <PUBCHEM_SHAPE_VOLUME>
150.6

> <PUBCHEM_COORDINATE_TYPE>
2
5
10

$$$$
