5463935
  -OEChem-11232109113D

 24 23  0     0  0  0  0  0  0999 V2000
    3.4204   -1.1077   -0.3408 S   0  0  0  0  0  0  0  0  0  0  0  0
   -1.9719   -0.3951   -0.2370 O   0  0  0  0  0  0  0  0  0  0  0  0
   -1.0861    1.5169    0.7027 O   0  0  0  0  0  0  0  0  0  0  0  0
    1.4935    0.9181   -0.2663 C   0  0  0  0  0  0  0  0  0  0  0  0
    0.3247   -0.0328   -0.5333 C   0  0  0  0  0  0  0  0  0  0  0  0
    2.8014    0.4945   -0.9339 C   0  0  0  0  0  0  0  0  0  0  0  0
   -0.9683    0.4842    0.0577 C   0  0  0  0  0  0  0  0  0  0  0  0
   -3.2645   -0.0471    0.2692 C   0  0  0  0  0  0  0  0  0  0  0  0
   -4.2578   -1.1138   -0.1399 C   0  0  0  0  0  0  0  0  0  0  0  0
    3.5085   -0.7171    1.4215 C   0  0  0  0  0  0  0  0  0  0  0  0
    1.6231    1.0745    0.8105 H   0  0  0  0  0  0  0  0  0  0  0  0
    1.2298    1.9075   -0.6645 H   0  0  0  0  0  0  0  0  0  0  0  0
    0.5160   -1.0147   -0.0888 H   0  0  0  0  0  0  0  0  0  0  0  0
    0.1831   -0.1480   -1.6138 H   0  0  0  0  0  0  0  0  0  0  0  0
    2.6609    0.4206   -2.0174 H   0  0  0  0  0  0  0  0  0  0  0  0
    3.5725    1.2527   -0.7609 H   0  0  0  0  0  0  0  0  0  0  0  0
   -3.2227    0.0200    1.3620 H   0  0  0  0  0  0  0  0  0  0  0  0
   -3.5699    0.9209   -0.1434 H   0  0  0  0  0  0  0  0  0  0  0  0
   -5.2592   -0.8789    0.2315 H   0  0  0  0  0  0  0  0  0  0  0  0
   -4.2975   -1.2054   -1.2304 H   0  0  0  0  0  0  0  0  0  0  0  0
   -3.9560   -2.0914    0.2503 H   0  0  0  0  0  0  0  0  0  0  0  0
    3.9978    0.2464    1.5873 H   0  0  0  0  0  0  0  0  0  0  0  0
    4.1003   -1.4889    1.9219 H   0  0  0  0  0  0  0  0  0  0  0  0
    2.5134   -0.7184    1.8729 H   0  0  0  0  0  0  0  0  0  0  0  0
  1  6  1  0  0  0  0
  1 10  1  0  0  0  0
  2  7  1  0  0  0  0
  2  8  1  0  0  0  0
  3  7  2  0  0  0  0
  4  5  1  0  0  0  0
  4  6  1  0  0  0  0
  4 11  1  0  0  0  0
  4 12  1  0  0  0  0
  5  7  1  0  0  0  0
  5 13  1  0  0  0  0
  5 14  1  0  0  0  0
  6 15  1  0  0  0  0
  6 16  1  0  0  0  0
  8  9  1  0  0  0  0
  8 17  1  0  0  0  0
  8 18  1  0  0  0  0
  9 19  1  0  0  0  0
  9 20  1  0  0  0  0
  9 21  1  0  0  0  0
 10 22  1  0  0  0  0
 10 23  1  0  0  0  0
 10 24  1  0  0  0  0
M  END
> <PUBCHEM_COMPOUND_CID>
5463935

> <PUBCHEM_CONFORMER_RMSD>
0.6

> <PUBCHEM_CONFORMER_DIVERSEORDER>
1
242
83
220
142
249
26
255
232
250
89
270
236
4
148
226
179
159
275
98
8
264
221
229
15
224
200
247
277
174
141
150
246
5
184
241
176
263
144
122
274
267
47
218
58
237
115
272
198
251
219
24
231
16
245
256
128
82
130
111
80
227
190
197
34
81
252
234
37
79
202
215
265
259
11
151
248
268
223
188
166
28
100
213
55
14
73
169
147
97
35
62
126
210
44
36
230
191
77
59
266
262
45
261
114
9
211
129
66
18
156
273
193
192
187
225
170
238
71
182
52
86
194
217
185
91
46
13
31
243
155
164
214
90
207
121
228
139
17
12
75
138
165
271
120
50
10
254
240
196
108
278
64
6
56
69
127
152
173
186
163
29
153
68
65
92
54
48
72
222
209
32
183
162
146
42
233
7
244
212
22
168
78
154
239
172
39
143
269
113
106
38
235
61
94
30
25
149
84
204
102
70
112
21
3
135
260
117
157
95
258
27
19
93
96
63
116
175
40
43
253
171
104
167
23
109
85
67
99
133
41
49
257
60
33
160
180
76
107
118
140
279
189
216
203
57
123
201
124
145
158
134
132
137
2
20
208
206
195
276
87
125
205
103
53
51
181
161
178
136
131
101
199
119
88
110
105
74
177

> <PUBCHEM_MMFF94_PARTIAL_CHARGES>
8
1 -0.46
10 0.23
2 -0.43
3 -0.57
5 0.06
6 0.23
7 0.66
8 0.28

> <PUBCHEM_EFFECTIVE_ROTOR_COUNT>
6

> <PUBCHEM_PHARMACOPHORE_FEATURES>
3
1 10 hydrophobe
1 3 acceptor
4 1 4 5 6 hydrophobe

> <PUBCHEM_HEAVY_ATOM_COUNT>
10

> <PUBCHEM_ATOM_DEF_STEREO_COUNT>
0

> <PUBCHEM_ATOM_UDEF_STEREO_COUNT>
0

> <PUBCHEM_BOND_DEF_STEREO_COUNT>
0

> <PUBCHEM_BOND_UDEF_STEREO_COUNT>
0

> <PUBCHEM_ISOTOPIC_ATOM_COUNT>
0

> <PUBCHEM_COMPONENT_COUNT>
1

> <PUBCHEM_CACTVS_TAUTO_COUNT>
1

> <PUBCHEM_CONFORMER_ID>
00535F7F00000001

> <PUBCHEM_MMFF94_ENERGY>
8.0663

> <PUBCHEM_FEATURE_SELFOVERLAP>
15.236

> <PUBCHEM_SHAPE_FINGERPRINT>
10857977 72 17632860823555020552
14251717 144 17385999546860920034
177051 138 18412827971335793606
18186145 218 13984657057949686383
18342897 69 18412827984178322039
20279233 1 15719400546674171632
20281407 28 18059862765729958003
20645477 70 17603586330966414194
20742870 56 16515678927587716554
21293036 1 13262402167298601711
21501925 9 18272365386472447580
22485316 2 18411418453426940583
22959321 94 18413100675852382534
4990 188 14201114609058602659

> <PUBCHEM_SHAPE_MULTIPOLES>
197.91
7.83
1.26
1.01
3.5
0.03
-0.2
-3.67
-0.27
-0.17
-0.09
-0.84
-0.07
-0.64

> <PUBCHEM_SHAPE_SELFOVERLAP>
346.129

> <PUBCHEM_SHAPE_VOLUME>
131.6

> <PUBCHEM_COORDINATE_TYPE>
2
5
10

$$$$
