5463913
  -OEChem-11232109473D

 37 37  0     1  0  0  0  0  0999 V2000
   -3.1665    0.1988   -1.3164 O   0  0  0  0  0  0  0  0  0  0  0  0
    1.7043    1.1704    0.0373 C   0  0  0  0  0  0  0  0  0  0  0  0
    0.8698   -0.1411    0.2183 C   0  0  2  0  0  0  0  0  0  0  0  0
    1.5808   -1.3862   -0.3923 C   0  0  1  0  0  0  0  0  0  0  0  0
    3.0999    0.9618    0.6875 C   0  0  0  0  0  0  0  0  0  0  0  0
    1.0249    2.3603    0.7504 C   0  0  0  0  0  0  0  0  0  0  0  0
    1.8763    1.5503   -1.4520 C   0  0  0  0  0  0  0  0  0  0  0  0
    3.0692   -1.3919   -0.1449 C   0  0  0  0  0  0  0  0  0  0  0  0
    3.7446   -0.3469    0.3491 C   0  0  0  0  0  0  0  0  0  0  0  0
   -0.5347   -0.0228   -0.3096 C   0  0  0  0  0  0  0  0  0  0  0  0
    0.9715   -2.6890    0.1454 C   0  0  0  0  0  0  0  0  0  0  0  0
   -1.6226   -0.1216    0.4648 C   0  0  0  0  0  0  0  0  0  0  0  0
   -2.9900    0.0034   -0.1169 C   0  0  0  0  0  0  0  0  0  0  0  0
   -4.1335   -0.1294    0.8725 C   0  0  0  0  0  0  0  0  0  0  0  0
   -5.4940   -0.0161    0.2068 C   0  0  0  0  0  0  0  0  0  0  0  0
    0.8079   -0.3131    1.3051 H   0  0  0  0  0  0  0  0  0  0  0  0
    1.4407   -1.3884   -1.4821 H   0  0  0  0  0  0  0  0  0  0  0  0
    3.0212    1.0168    1.7812 H   0  0  0  0  0  0  0  0  0  0  0  0
    3.7729    1.7741    0.3849 H   0  0  0  0  0  0  0  0  0  0  0  0
    1.6606    3.2527    0.7157 H   0  0  0  0  0  0  0  0  0  0  0  0
    0.0697    2.6239    0.2840 H   0  0  0  0  0  0  0  0  0  0  0  0
    0.8320    2.1321    1.8047 H   0  0  0  0  0  0  0  0  0  0  0  0
    0.9163    1.7796   -1.9260 H   0  0  0  0  0  0  0  0  0  0  0  0
    2.5017    2.4453   -1.5533 H   0  0  0  0  0  0  0  0  0  0  0  0
    2.3545    0.7568   -2.0340 H   0  0  0  0  0  0  0  0  0  0  0  0
    3.6211   -2.2950   -0.3933 H   0  0  0  0  0  0  0  0  0  0  0  0
    4.8141   -0.4381    0.5152 H   0  0  0  0  0  0  0  0  0  0  0  0
   -0.6453    0.1321   -1.3797 H   0  0  0  0  0  0  0  0  0  0  0  0
    1.0601   -2.7513    1.2360 H   0  0  0  0  0  0  0  0  0  0  0  0
   -0.0885   -2.7722   -0.1145 H   0  0  0  0  0  0  0  0  0  0  0  0
    1.4765   -3.5638   -0.2804 H   0  0  0  0  0  0  0  0  0  0  0  0
   -1.5463   -0.2869    1.5339 H   0  0  0  0  0  0  0  0  0  0  0  0
   -4.0325    0.6587    1.6266 H   0  0  0  0  0  0  0  0  0  0  0  0
   -4.0535   -1.1036    1.3670 H   0  0  0  0  0  0  0  0  0  0  0  0
   -5.6100    0.9536   -0.2886 H   0  0  0  0  0  0  0  0  0  0  0  0
   -6.2913   -0.1182    0.9494 H   0  0  0  0  0  0  0  0  0  0  0  0
   -5.6282   -0.7970   -0.5491 H   0  0  0  0  0  0  0  0  0  0  0  0
  1 13  2  0  0  0  0
  2  3  1  0  0  0  0
  2  5  1  0  0  0  0
  2  6  1  0  0  0  0
  2  7  1  0  0  0  0
  3  4  1  0  0  0  0
  3 10  1  0  0  0  0
  3 16  1  0  0  0  0
  4  8  1  0  0  0  0
  4 11  1  0  0  0  0
  4 17  1  0  0  0  0
  5  9  1  0  0  0  0
  5 18  1  0  0  0  0
  5 19  1  0  0  0  0
  6 20  1  0  0  0  0
  6 21  1  0  0  0  0
  6 22  1  0  0  0  0
  7 23  1  0  0  0  0
  7 24  1  0  0  0  0
  7 25  1  0  0  0  0
  8  9  2  0  0  0  0
  8 26  1  0  0  0  0
  9 27  1  0  0  0  0
 10 12  2  0  0  0  0
 10 28  1  0  0  0  0
 11 29  1  0  0  0  0
 11 30  1  0  0  0  0
 11 31  1  0  0  0  0
 12 13  1  0  0  0  0
 12 32  1  0  0  0  0
 13 14  1  0  0  0  0
 14 15  1  0  0  0  0
 14 33  1  0  0  0  0
 14 34  1  0  0  0  0
 15 35  1  0  0  0  0
 15 36  1  0  0  0  0
 15 37  1  0  0  0  0
M  END
> <PUBCHEM_COMPOUND_CID>
5463913

> <PUBCHEM_CONFORMER_RMSD>
0.6

> <PUBCHEM_CONFORMER_DIVERSEORDER>
1
68
74
92
67
47
21
78
13
93
77
58
90
46
23
76
72
3
35
84
55
32
19
53
64
30
75
10
5
40
11
42
85
94
25
22
34
80
59
15
4
12
89
51
36
38
73
33
56
45
60
50
7
37
54
69
9
24
91
26
81
48
70
28
57
88
43
63
86
31
65
39
6
29
44
2
14
61
82
49
71
87
41
18
16
83
20
79
27
66
8
62
17
52

> <PUBCHEM_MMFF94_PARTIAL_CHARGES>
14
1 -0.57
10 -0.29
12 -0.14
13 0.49
14 0.06
26 0.15
27 0.15
28 0.15
3 0.14
32 0.15
4 0.14
5 0.14
8 -0.29
9 -0.29

> <PUBCHEM_EFFECTIVE_ROTOR_COUNT>
3.8

> <PUBCHEM_PHARMACOPHORE_FEATURES>
4
1 1 acceptor
1 15 hydrophobe
3 2 6 7 hydrophobe
6 2 3 4 5 8 9 rings

> <PUBCHEM_HEAVY_ATOM_COUNT>
15

> <PUBCHEM_ATOM_DEF_STEREO_COUNT>
0

> <PUBCHEM_ATOM_UDEF_STEREO_COUNT>
2

> <PUBCHEM_BOND_DEF_STEREO_COUNT>
1

> <PUBCHEM_BOND_UDEF_STEREO_COUNT>
0

> <PUBCHEM_ISOTOPIC_ATOM_COUNT>
0

> <PUBCHEM_COMPONENT_COUNT>
1

> <PUBCHEM_CACTVS_TAUTO_COUNT>
5

> <PUBCHEM_CONFORMER_ID>
00535F6900000001

> <PUBCHEM_MMFF94_ENERGY>
26.296

> <PUBCHEM_FEATURE_SELFOVERLAP>
20.297

> <PUBCHEM_SHAPE_FINGERPRINT>
10219947 1 18411133632728709034
11471102 20 18411981360272394329
12236239 1 17489869332289226723
13134695 92 18340758274132909508
13836976 161 18410858776075445527
14251717 144 18412262830838372419
14252887 29 18059861610479025798
15501101 241 18408038507259298868
15775835 57 18130224964198160412
16945 1 18271515426041614546
17834072 33 18201153343579974223
18186145 218 18343300387707264951
200 152 18272646849286897387
20279233 1 18040157310221970715
20559304 39 18272376355856052873
20606313 2 18411700989023131522
20645477 70 18342737378157415431
20708731 107 18335148591477248676
20871998 22 18056766429549366246
21501502 16 18118968233004640454
21730867 7 18408323302256207187
22289505 5 18263636273845237093
2255824 54 18412548733810034974
22854114 111 18342177795289282465
23402539 116 15769768057218602568
23526113 38 17531822224717662787
23557571 272 15123520172307806009
23598291 2 17988636415673460309
2748010 2 18266749167452140194
3060560 45 18412544297394155262
33824 294 18409729547389671762
474 4 17986947655549106393
7364860 26 18343866593277759390
7495541 125 17240775007133589241
77492 1 17489583467755667255
81228 2 16897912874721203371
8272917 22 18342183228491587663

> <PUBCHEM_SHAPE_MULTIPOLES>
302.82
8.15
2.08
1.01
12.3
0.37
-0.23
0.28
0.85
-2.09
0.1
0.04
-0.33
0.08

> <PUBCHEM_SHAPE_SELFOVERLAP>
598.651

> <PUBCHEM_SHAPE_VOLUME>
179.8

> <PUBCHEM_COORDINATE_TYPE>
2
5
10

$$$$
