5463840
  -OEChem-11232109463D

 25 25  0     1  0  0  0  0  0999 V2000
   -3.0947    1.5018    0.0832 O   0  0  0  0  0  0  0  0  0  0  0  0
   -0.9141    0.1459    1.4673 O   0  0  0  0  0  0  0  0  0  0  0  0
   -4.7505   -0.8040   -0.2798 O   0  0  0  0  0  0  0  0  0  0  0  0
   -2.5617    0.2521   -0.3518 C   0  0  1  0  0  0  0  0  0  0  0  0
   -1.1228    0.1712    0.1001 C   0  0  0  0  0  0  0  0  0  0  0  0
   -3.4198   -0.8817    0.2110 C   0  0  0  0  0  0  0  0  0  0  0  0
    1.3225    0.0044   -0.4125 C   0  0  0  0  0  0  0  0  0  0  0  0
   -0.1004    0.0942   -0.7696 C   0  0  0  0  0  0  0  0  0  0  0  0
    2.0685    1.1671   -0.2850 C   0  0  0  0  0  0  0  0  0  0  0  0
    1.8975   -1.2416   -0.2084 C   0  0  0  0  0  0  0  0  0  0  0  0
    3.4190    1.0820    0.0536 C   0  0  0  0  0  0  0  0  0  0  0  0
    3.2479   -1.3267    0.1305 C   0  0  0  0  0  0  0  0  0  0  0  0
    4.0086   -0.1648    0.2615 C   0  0  0  0  0  0  0  0  0  0  0  0
   -2.6343    0.2529   -1.4454 H   0  0  0  0  0  0  0  0  0  0  0  0
   -3.4833   -0.8250    1.3030 H   0  0  0  0  0  0  0  0  0  0  0  0
   -3.0114   -1.8616   -0.0583 H   0  0  0  0  0  0  0  0  0  0  0  0
   -0.2960    0.1036   -1.8394 H   0  0  0  0  0  0  0  0  0  0  0  0
    1.6210    2.1447   -0.4444 H   0  0  0  0  0  0  0  0  0  0  0  0
    1.3159   -2.1545   -0.3075 H   0  0  0  0  0  0  0  0  0  0  0  0
    4.0114    1.9866    0.1557 H   0  0  0  0  0  0  0  0  0  0  0  0
    3.7073   -2.2974    0.2924 H   0  0  0  0  0  0  0  0  0  0  0  0
    5.0601   -0.2310    0.5253 H   0  0  0  0  0  0  0  0  0  0  0  0
   -3.0838    1.5126    1.0558 H   0  0  0  0  0  0  0  0  0  0  0  0
    0.0372    0.0866    1.6519 H   0  0  0  0  0  0  0  0  0  0  0  0
   -4.7084   -0.8642   -1.2494 H   0  0  0  0  0  0  0  0  0  0  0  0
  1  4  1  0  0  0  0
  1 23  1  0  0  0  0
  2  5  1  0  0  0  0
  2 24  1  0  0  0  0
  3  6  1  0  0  0  0
  3 25  1  0  0  0  0
  4  5  1  0  0  0  0
  4  6  1  0  0  0  0
  4 14  1  0  0  0  0
  5  8  2  0  0  0  0
  6 15  1  0  0  0  0
  6 16  1  0  0  0  0
  7  8  1  0  0  0  0
  7  9  2  0  0  0  0
  7 10  1  0  0  0  0
  8 17  1  0  0  0  0
  9 11  1  0  0  0  0
  9 18  1  0  0  0  0
 10 12  2  0  0  0  0
 10 19  1  0  0  0  0
 11 13  2  0  0  0  0
 11 20  1  0  0  0  0
 12 13  1  0  0  0  0
 12 21  1  0  0  0  0
 13 22  1  0  0  0  0
M  END
> <PUBCHEM_COMPOUND_CID>
5463840

> <PUBCHEM_CONFORMER_RMSD>
0.6

> <PUBCHEM_CONFORMER_DIVERSEORDER>
1
22
14
13
19
2
6
20
18
11
8
15
17
3
5
9
4
23
10
21
7
16
12

> <PUBCHEM_MMFF94_PARTIAL_CHARGES>
22
1 -0.68
10 -0.15
11 -0.15
12 -0.15
13 -0.15
17 0.15
18 0.15
19 0.15
2 -0.53
20 0.15
21 0.15
22 0.15
23 0.4
24 0.45
25 0.4
3 -0.68
4 0.42
5 -0.06
6 0.28
7 0.03
8 -0.18
9 -0.15

> <PUBCHEM_EFFECTIVE_ROTOR_COUNT>
3

> <PUBCHEM_PHARMACOPHORE_FEATURES>
6
1 1 acceptor
1 1 donor
1 2 donor
1 3 acceptor
1 3 donor
6 7 9 10 11 12 13 rings

> <PUBCHEM_HEAVY_ATOM_COUNT>
13

> <PUBCHEM_ATOM_DEF_STEREO_COUNT>
0

> <PUBCHEM_ATOM_UDEF_STEREO_COUNT>
1

> <PUBCHEM_BOND_DEF_STEREO_COUNT>
1

> <PUBCHEM_BOND_UDEF_STEREO_COUNT>
0

> <PUBCHEM_ISOTOPIC_ATOM_COUNT>
0

> <PUBCHEM_COMPONENT_COUNT>
1

> <PUBCHEM_CACTVS_TAUTO_COUNT>
6

> <PUBCHEM_CONFORMER_ID>
00535F2000000001

> <PUBCHEM_MMFF94_ENERGY>
30.7488

> <PUBCHEM_FEATURE_SELFOVERLAP>
30.454

> <PUBCHEM_SHAPE_FINGERPRINT>
12162725 195 18335424568801180061
12251169 10 18411979187077133886
13296908 3 18412266099213305438
14144814 61 18413108338131664668
14251717 144 18334574646465915926
14325111 11 18410575076089033668
177051 138 18343585126938410726
18186145 218 18040714723376809517
200 152 18413384350179006743
20201158 50 17967535657828222826
20279233 1 17167583795459622522
20645477 70 18408600331805097311
20871998 22 17982451499954614870
21501925 9 18408600370522521678
23402539 116 17894903027582637925
23402655 69 18408601444148463845
26918003 58 18409164428667384123
3248919 1 17313117357513856468
42 15 18408323276396667679
5104073 3 18411136909340448273
57812782 119 18186519916696055131
581208 293 18186801396326494190
69090 78 18260545653907289763
74978 22 14490767804748765151
77779 3 18411139121501766997
9709674 26 18410299103161251063

> <PUBCHEM_SHAPE_MULTIPOLES>
249.93
8.05
1.32
0.82
4.41
0.02
-0.13
-1.05
-0.25
-0.39
0.01
0.1
0.01
-0.07

> <PUBCHEM_SHAPE_SELFOVERLAP>
511.305

> <PUBCHEM_SHAPE_VOLUME>
144.4

> <PUBCHEM_COORDINATE_TYPE>
2
5
10

$$$$
