5463682
  -OEChem-11232108523D

 30 29  0     0  0  0  0  0  0999 V2000
   -0.0648   -0.3703    0.0436 O   0  0  0  0  0  0  0  0  0  0  0  0
   -0.9797    1.6271   -0.6452 O   0  0  0  0  0  0  0  0  0  0  0  0
    3.7170   -0.4228    0.2304 C   0  0  0  0  0  0  0  0  0  0  0  0
    2.2565   -0.8966    0.3065 C   0  0  0  0  0  0  0  0  0  0  0  0
    1.2433    0.1731   -0.0829 C   0  0  0  0  0  0  0  0  0  0  0  0
    4.0379    0.0462   -1.1907 C   0  0  0  0  0  0  0  0  0  0  0  0
    4.0179    0.6993    1.2250 C   0  0  0  0  0  0  0  0  0  0  0  0
   -1.0950    0.4686   -0.2709 C   0  0  0  0  0  0  0  0  0  0  0  0
   -2.3982   -0.2387   -0.0841 C   0  0  0  0  0  0  0  0  0  0  0  0
   -2.4467   -1.7177   -0.3288 C   0  0  0  0  0  0  0  0  0  0  0  0
   -3.4419    0.5359    0.2650 C   0  0  0  0  0  0  0  0  0  0  0  0
   -4.8464    0.0958    0.5321 C   0  0  0  0  0  0  0  0  0  0  0  0
    4.3607   -1.2783    0.4699 H   0  0  0  0  0  0  0  0  0  0  0  0
    2.0356   -1.2509    1.3216 H   0  0  0  0  0  0  0  0  0  0  0  0
    2.1175   -1.7721   -0.3411 H   0  0  0  0  0  0  0  0  0  0  0  0
    1.3265    1.0443    0.5749 H   0  0  0  0  0  0  0  0  0  0  0  0
    1.3860    0.4878   -1.1216 H   0  0  0  0  0  0  0  0  0  0  0  0
    5.1155    0.2167   -1.2944 H   0  0  0  0  0  0  0  0  0  0  0  0
    3.5393    0.9870   -1.4441 H   0  0  0  0  0  0  0  0  0  0  0  0
    3.7526   -0.7095   -1.9300 H   0  0  0  0  0  0  0  0  0  0  0  0
    3.4850    1.6236    0.9816 H   0  0  0  0  0  0  0  0  0  0  0  0
    5.0891    0.9293    1.2257 H   0  0  0  0  0  0  0  0  0  0  0  0
    3.7410    0.4013    2.2416 H   0  0  0  0  0  0  0  0  0  0  0  0
   -3.4585   -2.0823   -0.5232 H   0  0  0  0  0  0  0  0  0  0  0  0
   -1.8495   -1.9789   -1.2095 H   0  0  0  0  0  0  0  0  0  0  0  0
   -2.0453   -2.2595    0.5335 H   0  0  0  0  0  0  0  0  0  0  0  0
   -3.2889    1.6058    0.3990 H   0  0  0  0  0  0  0  0  0  0  0  0
   -5.1698    0.4793    1.5053 H   0  0  0  0  0  0  0  0  0  0  0  0
   -4.9668   -0.9893    0.5543 H   0  0  0  0  0  0  0  0  0  0  0  0
   -5.5149    0.5028   -0.2327 H   0  0  0  0  0  0  0  0  0  0  0  0
  1  5  1  0  0  0  0
  1  8  1  0  0  0  0
  2  8  2  0  0  0  0
  3  4  1  0  0  0  0
  3  6  1  0  0  0  0
  3  7  1  0  0  0  0
  3 13  1  0  0  0  0
  4  5  1  0  0  0  0
  4 14  1  0  0  0  0
  4 15  1  0  0  0  0
  5 16  1  0  0  0  0
  5 17  1  0  0  0  0
  6 18  1  0  0  0  0
  6 19  1  0  0  0  0
  6 20  1  0  0  0  0
  7 21  1  0  0  0  0
  7 22  1  0  0  0  0
  7 23  1  0  0  0  0
  8  9  1  0  0  0  0
  9 10  1  0  0  0  0
  9 11  2  0  0  0  0
 10 24  1  0  0  0  0
 10 25  1  0  0  0  0
 10 26  1  0  0  0  0
 11 12  1  0  0  0  0
 11 27  1  0  0  0  0
 12 28  1  0  0  0  0
 12 29  1  0  0  0  0
 12 30  1  0  0  0  0
M  END
> <PUBCHEM_COMPOUND_CID>
5463682

> <PUBCHEM_CONFORMER_RMSD>
0.6

> <PUBCHEM_CONFORMER_DIVERSEORDER>
1
69
84
75
88
40
61
59
44
65
77
32
87
80
18
33
81
50
45
86
29
35
21
3
70
13
47
36
8
76
30
53
28
39
2
63
7
26
41
5
58
85
34
78
15
25
37
82
48
24
83
27
16
73
31
17
20
38
64
71
43
9
22
6
74
60
72
10
49
55
57
68
54
51
4
23
62
12
52
56
19
11
66
79
14
42
46
67

> <PUBCHEM_MMFF94_PARTIAL_CHARGES>
9
1 -0.43
10 0.14
11 -0.29
12 0.14
2 -0.57
27 0.15
5 0.28
8 0.71
9 -0.12

> <PUBCHEM_EFFECTIVE_ROTOR_COUNT>
5

> <PUBCHEM_PHARMACOPHORE_FEATURES>
4
1 10 hydrophobe
1 12 hydrophobe
1 2 acceptor
3 3 6 7 hydrophobe

> <PUBCHEM_HEAVY_ATOM_COUNT>
12

> <PUBCHEM_ATOM_DEF_STEREO_COUNT>
0

> <PUBCHEM_ATOM_UDEF_STEREO_COUNT>
0

> <PUBCHEM_BOND_DEF_STEREO_COUNT>
1

> <PUBCHEM_BOND_UDEF_STEREO_COUNT>
0

> <PUBCHEM_ISOTOPIC_ATOM_COUNT>
0

> <PUBCHEM_COMPONENT_COUNT>
1

> <PUBCHEM_CACTVS_TAUTO_COUNT>
1

> <PUBCHEM_CONFORMER_ID>
00535E8200000001

> <PUBCHEM_MMFF94_ENERGY>
16.1316

> <PUBCHEM_FEATURE_SELFOVERLAP>
20.298

> <PUBCHEM_SHAPE_FINGERPRINT>
11062470 55 17775566429323907259
11132069 177 18411414029278283706
12251169 10 18413671322650585169
12932764 1 18340195320000324974
13690532 89 11383832649493379197
14123238 8 15213024859778699011
14252887 29 18337682935677896315
14445660 50 18272370888431055491
17834072 33 16773788242736434661
18186145 218 18202842145694178098
19050596 39 18187359948217586834
19107657 47 14405188352214306370
200 152 13912322382712971561
20279233 1 17632580452617104782
20281407 28 18410293614076365682
20281475 54 18335135405843584982
20528008 55 18273208694890411219
20645477 70 15841278056222513292
22485316 2 18413384341209445795
23402539 116 17530958090177126214
23557571 272 18339368461544716300
449060 50 17917712400785611699
522135 26 15195287512888392804
5374978 207 17894628154171328952

> <PUBCHEM_SHAPE_MULTIPOLES>
235.22
9.51
1.22
0.94
0.24
0.19
0.02
-0.44
-1.35
-0.51
0.07
0.84
-0.14
0.21

> <PUBCHEM_SHAPE_SELFOVERLAP>
439.8

> <PUBCHEM_SHAPE_VOLUME>
147.6

> <PUBCHEM_COORDINATE_TYPE>
2
5
10

$$$$
