5463908
  -OEChem-11232109033D

 26 26  0     0  0  0  0  0  0999 V2000
    3.8859   -0.0837   -1.0007 O   0  0  0  0  0  0  0  0  0  0  0  0
    1.0984   -0.0486   -0.7765 C   0  0  0  0  0  0  0  0  0  0  0  0
   -0.3685   -0.0269   -0.4331 C   0  0  0  0  0  0  0  0  0  0  0  0
    1.9724    0.0185    0.4743 C   0  0  0  0  0  0  0  0  0  0  0  0
   -1.0354   -1.2229   -0.2110 C   0  0  0  0  0  0  0  0  0  0  0  0
   -1.0298    1.1894   -0.3440 C   0  0  0  0  0  0  0  0  0  0  0  0
   -3.0696    0.0140    0.1994 C   0  0  0  0  0  0  0  0  0  0  0  0
   -2.3935   -1.2024    0.1068 C   0  0  0  0  0  0  0  0  0  0  0  0
   -2.3879    1.2100   -0.0260 C   0  0  0  0  0  0  0  0  0  0  0  0
    3.4555    0.0065    0.1480 C   0  0  0  0  0  0  0  0  0  0  0  0
   -4.5213    0.0359    0.5402 C   0  0  0  0  0  0  0  0  0  0  0  0
    4.3938    0.1104    1.3225 C   0  0  0  0  0  0  0  0  0  0  0  0
    1.3289   -0.9549   -1.3522 H   0  0  0  0  0  0  0  0  0  0  0  0
    1.3324    0.7880   -1.4482 H   0  0  0  0  0  0  0  0  0  0  0  0
    1.7658   -0.8365    1.1285 H   0  0  0  0  0  0  0  0  0  0  0  0
    1.7597    0.9364    1.0348 H   0  0  0  0  0  0  0  0  0  0  0  0
   -0.5169   -2.1752   -0.2783 H   0  0  0  0  0  0  0  0  0  0  0  0
   -0.5072    2.1261   -0.5154 H   0  0  0  0  0  0  0  0  0  0  0  0
   -2.9131   -2.1406    0.2826 H   0  0  0  0  0  0  0  0  0  0  0  0
   -2.9032    2.1642    0.0455 H   0  0  0  0  0  0  0  0  0  0  0  0
   -5.0224    0.8944    0.0802 H   0  0  0  0  0  0  0  0  0  0  0  0
   -5.0269   -0.8639    0.1735 H   0  0  0  0  0  0  0  0  0  0  0  0
   -4.6515    0.0938    1.6254 H   0  0  0  0  0  0  0  0  0  0  0  0
    5.4290    0.0881    0.9710 H   0  0  0  0  0  0  0  0  0  0  0  0
    4.2195    1.0524    1.8483 H   0  0  0  0  0  0  0  0  0  0  0  0
    4.2314   -0.7342    1.9966 H   0  0  0  0  0  0  0  0  0  0  0  0
  1 10  2  0  0  0  0
  2  3  1  0  0  0  0
  2  4  1  0  0  0  0
  2 13  1  0  0  0  0
  2 14  1  0  0  0  0
  3  5  2  0  0  0  0
  3  6  1  0  0  0  0
  4 10  1  0  0  0  0
  4 15  1  0  0  0  0
  4 16  1  0  0  0  0
  5  8  1  0  0  0  0
  5 17  1  0  0  0  0
  6  9  2  0  0  0  0
  6 18  1  0  0  0  0
  7  8  2  0  0  0  0
  7  9  1  0  0  0  0
  7 11  1  0  0  0  0
  8 19  1  0  0  0  0
  9 20  1  0  0  0  0
 10 12  1  0  0  0  0
 11 21  1  0  0  0  0
 11 22  1  0  0  0  0
 11 23  1  0  0  0  0
 12 24  1  0  0  0  0
 12 25  1  0  0  0  0
 12 26  1  0  0  0  0
M  END
> <PUBCHEM_COMPOUND_CID>
5463908

> <PUBCHEM_CONFORMER_RMSD>
0.6

> <PUBCHEM_CONFORMER_DIVERSEORDER>
1
5
4
2
6
8
9
10
3
12
11
7

> <PUBCHEM_MMFF94_PARTIAL_CHARGES>
16
1 -0.57
10 0.45
11 0.14
12 0.06
17 0.15
18 0.15
19 0.15
2 0.14
20 0.15
3 -0.14
4 0.06
5 -0.15
6 -0.15
7 -0.14
8 -0.15
9 -0.15

> <PUBCHEM_EFFECTIVE_ROTOR_COUNT>
3

> <PUBCHEM_PHARMACOPHORE_FEATURES>
2
1 1 acceptor
6 3 5 6 7 8 9 rings

> <PUBCHEM_HEAVY_ATOM_COUNT>
12

> <PUBCHEM_ATOM_DEF_STEREO_COUNT>
0

> <PUBCHEM_ATOM_UDEF_STEREO_COUNT>
0

> <PUBCHEM_BOND_DEF_STEREO_COUNT>
0

> <PUBCHEM_BOND_UDEF_STEREO_COUNT>
0

> <PUBCHEM_ISOTOPIC_ATOM_COUNT>
0

> <PUBCHEM_COMPONENT_COUNT>
1

> <PUBCHEM_CACTVS_TAUTO_COUNT>
3

> <PUBCHEM_CONFORMER_ID>
00535F6400000001

> <PUBCHEM_MMFF94_ENERGY>
23.1574

> <PUBCHEM_FEATURE_SELFOVERLAP>
10.148

> <PUBCHEM_SHAPE_FINGERPRINT>
11132069 177 18343300379238597589
11401426 45 18411978058075546565
12119455 92 17131832041048088589
12251169 10 18410008857776321744
12932764 1 17989478611404899454
13024252 1 14923942341162727501
13581323 91 18334296461217532014
14144814 61 18260264135996314520
14943859 89 15267340721474613191
15219456 202 18059580118053187071
15375462 189 17676200286424794368
17846911 113 18343864407392411953
18186145 218 15769775758527396660
190213 19 17748824107613307626
19422 9 17386005040266100232
200 152 15357690890305653368
20279233 1 17775284971848910182
20510252 161 18271808960854300873
20528008 55 18201998837160169935
20645464 45 17989209248146175743
20645477 56 17989200464932832568
20645477 70 14273728539391108160
21293036 1 10015865371039648675
22485316 2 14779267531126508321
22854114 59 17703789227820090122
22926399 37 14692567740762736043
23402539 116 18342729724741556069
23559900 14 18270691878789383446
2748010 2 18048328743258378631
42 15 18040434373707956266
43471831 8 18188206498893364539
449060 50 18059851792494848120
5374978 207 18261108595307595816
69090 78 17775000198121181575

> <PUBCHEM_SHAPE_MULTIPOLES>
241.09
8.34
1.11
0.95
4.43
0.01
-0.08
-0.13
-2.38
-0.83
0.05
0.79
-0.01
0.09

> <PUBCHEM_SHAPE_SELFOVERLAP>
488.005

> <PUBCHEM_SHAPE_VOLUME>
142

> <PUBCHEM_COORDINATE_TYPE>
2
5
10

$$$$
