5463855
  -OEChem-11232108573D

 24 23  0     1  0  0  0  0  0999 V2000
    1.7638    0.1953    0.2376 O   0  0  0  0  0  0  0  0  0  0  0  0
    0.3851   -1.3739   -0.7361 O   0  0  0  0  0  0  0  0  0  0  0  0
   -0.5380    0.6989    0.1751 C   0  0  1  0  0  0  0  0  0  0  0  0
   -0.2709    2.0377   -0.5055 C   0  0  0  0  0  0  0  0  0  0  0  0
   -1.8725    0.1445   -0.2500 C   0  0  0  0  0  0  0  0  0  0  0  0
    0.5573   -0.2993   -0.1755 C   0  0  0  0  0  0  0  0  0  0  0  0
    2.8959   -0.6403   -0.0242 C   0  0  0  0  0  0  0  0  0  0  0  0
   -2.8703   -0.1299    0.6034 C   0  0  0  0  0  0  0  0  0  0  0  0
    4.1439    0.0451    0.4900 C   0  0  0  0  0  0  0  0  0  0  0  0
   -4.1943   -0.6781    0.1852 C   0  0  0  0  0  0  0  0  0  0  0  0
   -0.5201    0.8319    1.2643 H   0  0  0  0  0  0  0  0  0  0  0  0
   -1.0844    2.7464   -0.3145 H   0  0  0  0  0  0  0  0  0  0  0  0
    0.6550    2.4925   -0.1369 H   0  0  0  0  0  0  0  0  0  0  0  0
   -0.1679    1.9225   -1.5908 H   0  0  0  0  0  0  0  0  0  0  0  0
   -2.0223   -0.0309   -1.3135 H   0  0  0  0  0  0  0  0  0  0  0  0
    2.7654   -1.6019    0.4845 H   0  0  0  0  0  0  0  0  0  0  0  0
    2.9838   -0.8082   -1.1034 H   0  0  0  0  0  0  0  0  0  0  0  0
   -2.7315    0.0459    1.6668 H   0  0  0  0  0  0  0  0  0  0  0  0
    5.0308   -0.5675    0.3056 H   0  0  0  0  0  0  0  0  0  0  0  0
    4.2778    1.0170    0.0037 H   0  0  0  0  0  0  0  0  0  0  0  0
    4.0633    0.2362    1.5652 H   0  0  0  0  0  0  0  0  0  0  0  0
   -4.9923    0.0099    0.4806 H   0  0  0  0  0  0  0  0  0  0  0  0
   -4.3707   -1.6404    0.6756 H   0  0  0  0  0  0  0  0  0  0  0  0
   -4.2581   -0.8301   -0.8969 H   0  0  0  0  0  0  0  0  0  0  0  0
  1  6  1  0  0  0  0
  1  7  1  0  0  0  0
  2  6  2  0  0  0  0
  3  4  1  0  0  0  0
  3  5  1  0  0  0  0
  3  6  1  0  0  0  0
  3 11  1  0  0  0  0
  4 12  1  0  0  0  0
  4 13  1  0  0  0  0
  4 14  1  0  0  0  0
  5  8  2  0  0  0  0
  5 15  1  0  0  0  0
  7  9  1  0  0  0  0
  7 16  1  0  0  0  0
  7 17  1  0  0  0  0
  8 10  1  0  0  0  0
  8 18  1  0  0  0  0
  9 19  1  0  0  0  0
  9 20  1  0  0  0  0
  9 21  1  0  0  0  0
 10 22  1  0  0  0  0
 10 23  1  0  0  0  0
 10 24  1  0  0  0  0
M  END
> <PUBCHEM_COMPOUND_CID>
5463855

> <PUBCHEM_CONFORMER_RMSD>
0.6

> <PUBCHEM_CONFORMER_DIVERSEORDER>
3
31
61
40
54
27
60
22
51
44
10
58
56
55
62
19
28
16
14
52
13
49
41
25
2
38
53
36
35
29
33
47
1
6
34
4
30
48
32
15
5
50
21
42
46
39
18
24
26
23
45
8
9
17
20
43
59
37
7
11
57
12

> <PUBCHEM_MMFF94_PARTIAL_CHARGES>
10
1 -0.43
10 0.14
15 0.15
18 0.15
2 -0.57
3 0.2
5 -0.29
6 0.66
7 0.28
8 -0.29

> <PUBCHEM_EFFECTIVE_ROTOR_COUNT>
4

> <PUBCHEM_PHARMACOPHORE_FEATURES>
3
1 10 hydrophobe
1 2 acceptor
1 4 hydrophobe

> <PUBCHEM_HEAVY_ATOM_COUNT>
10

> <PUBCHEM_ATOM_DEF_STEREO_COUNT>
0

> <PUBCHEM_ATOM_UDEF_STEREO_COUNT>
1

> <PUBCHEM_BOND_DEF_STEREO_COUNT>
1

> <PUBCHEM_BOND_UDEF_STEREO_COUNT>
0

> <PUBCHEM_ISOTOPIC_ATOM_COUNT>
0

> <PUBCHEM_COMPONENT_COUNT>
1

> <PUBCHEM_CACTVS_TAUTO_COUNT>
1

> <PUBCHEM_CONFORMER_ID>
00535F2F00000003

> <PUBCHEM_MMFF94_ENERGY>
5.1879

> <PUBCHEM_FEATURE_SELFOVERLAP>
15.223

> <PUBCHEM_SHAPE_FINGERPRINT>
10219947 1 18412267254733509743
10857977 72 18410006628598650481
11062470 55 14345796045570093402
12032990 46 18410016519918947510
12932764 1 14404607763331158962
14252887 29 18341908371806493531
14325111 11 18271525295528236202
177051 138 18113617846515682378
18380122 1 18270964531433619958
20201158 50 18260552221117903331
20653085 51 12750941278491715650
20711985 327 18412271648627829253
20871998 22 18340781338149285767
21119208 17 14273453691227330875
22485316 2 18334290963955019635
23402539 116 18334849515998995391
29004967 10 18410019818833470089
3250762 1 17693099565242404759
58734985 188 18272370918464658913

> <PUBCHEM_SHAPE_MULTIPOLES>
194.06
6.73
1.34
0.75
0.63
0.68
0
-2.05
1.5
-0.15
-0.28
-0.01
-0.03
0.15

> <PUBCHEM_SHAPE_SELFOVERLAP>
359.19

> <PUBCHEM_SHAPE_VOLUME>
122.8

> <PUBCHEM_COORDINATE_TYPE>
2
5
10

$$$$
