5463762
  -OEChem-11232109243D

 29 29  0     1  0  0  0  0  0999 V2000
   -1.2985   -0.9375    0.1345 O   0  0  0  0  0  0  0  0  0  0  0  0
   -3.4658   -0.5594    0.0293 O   0  0  0  0  0  0  0  0  0  0  0  0
   -2.0215    1.1585   -0.4955 O   0  0  0  0  0  0  0  0  0  0  0  0
    0.0634   -0.5104    0.0006 C   0  0  1  0  0  0  0  0  0  0  0  0
    0.2988    0.6754    0.9478 C   0  0  0  0  0  0  0  0  0  0  0  0
    0.9244   -1.7522    0.2875 C   0  0  0  0  0  0  0  0  0  0  0  0
    1.1748    1.8012    0.3739 C   0  0  0  0  0  0  0  0  0  0  0  0
    2.4310   -1.5263    0.3831 C   0  0  0  0  0  0  0  0  0  0  0  0
    2.6753    1.5112    0.2998 C   0  0  0  0  0  0  0  0  0  0  0  0
    2.9719   -0.7506   -0.7769 C   0  0  0  0  0  0  0  0  0  0  0  0
    3.0685    0.5859   -0.8130 C   0  0  0  0  0  0  0  0  0  0  0  0
   -2.2389    0.0060   -0.1469 C   0  0  0  0  0  0  0  0  0  0  0  0
   -4.5835    0.2981   -0.2242 C   0  0  0  0  0  0  0  0  0  0  0  0
    0.2050   -0.2100   -1.0454 H   0  0  0  0  0  0  0  0  0  0  0  0
    0.7712    0.3088    1.8693 H   0  0  0  0  0  0  0  0  0  0  0  0
   -0.6252    1.1294    1.3183 H   0  0  0  0  0  0  0  0  0  0  0  0
    0.7185   -2.4970   -0.4938 H   0  0  0  0  0  0  0  0  0  0  0  0
    0.5824   -2.2242    1.2186 H   0  0  0  0  0  0  0  0  0  0  0  0
    1.0497    2.6724    1.0308 H   0  0  0  0  0  0  0  0  0  0  0  0
    0.7939    2.1070   -0.6085 H   0  0  0  0  0  0  0  0  0  0  0  0
    2.9391   -2.4979    0.4199 H   0  0  0  0  0  0  0  0  0  0  0  0
    2.6766   -1.0420    1.3342 H   0  0  0  0  0  0  0  0  0  0  0  0
    3.0446    1.1483    1.2656 H   0  0  0  0  0  0  0  0  0  0  0  0
    3.2010    2.4603    0.1314 H   0  0  0  0  0  0  0  0  0  0  0  0
    3.2718   -1.3174   -1.6546 H   0  0  0  0  0  0  0  0  0  0  0  0
    3.4495    1.0482   -1.7206 H   0  0  0  0  0  0  0  0  0  0  0  0
   -4.5663    1.1539    0.4573 H   0  0  0  0  0  0  0  0  0  0  0  0
   -5.4981   -0.2738   -0.0465 H   0  0  0  0  0  0  0  0  0  0  0  0
   -4.5753    0.6326   -1.2660 H   0  0  0  0  0  0  0  0  0  0  0  0
  1  4  1  0  0  0  0
  1 12  1  0  0  0  0
  2 12  1  0  0  0  0
  2 13  1  0  0  0  0
  3 12  2  0  0  0  0
  4  5  1  0  0  0  0
  4  6  1  0  0  0  0
  4 14  1  0  0  0  0
  5  7  1  0  0  0  0
  5 15  1  0  0  0  0
  5 16  1  0  0  0  0
  6  8  1  0  0  0  0
  6 17  1  0  0  0  0
  6 18  1  0  0  0  0
  7  9  1  0  0  0  0
  7 19  1  0  0  0  0
  7 20  1  0  0  0  0
  8 10  1  0  0  0  0
  8 21  1  0  0  0  0
  8 22  1  0  0  0  0
  9 11  1  0  0  0  0
  9 23  1  0  0  0  0
  9 24  1  0  0  0  0
 10 11  2  0  0  0  0
 10 25  1  0  0  0  0
 11 26  1  0  0  0  0
 13 27  1  0  0  0  0
 13 28  1  0  0  0  0
 13 29  1  0  0  0  0
M  END
> <PUBCHEM_COMPOUND_CID>
5463762

> <PUBCHEM_CONFORMER_RMSD>
0.6

> <PUBCHEM_CONFORMER_DIVERSEORDER>
1
3
5
6
4
2

> <PUBCHEM_MMFF94_PARTIAL_CHARGES>
12
1 -0.43
10 -0.29
11 -0.29
12 0.87
13 0.28
2 -0.43
25 0.15
26 0.15
3 -0.57
4 0.28
8 0.14
9 0.14

> <PUBCHEM_EFFECTIVE_ROTOR_COUNT>
4.2

> <PUBCHEM_PHARMACOPHORE_FEATURES>
0

> <PUBCHEM_HEAVY_ATOM_COUNT>
13

> <PUBCHEM_ATOM_DEF_STEREO_COUNT>
0

> <PUBCHEM_ATOM_UDEF_STEREO_COUNT>
1

> <PUBCHEM_BOND_DEF_STEREO_COUNT>
1

> <PUBCHEM_BOND_UDEF_STEREO_COUNT>
0

> <PUBCHEM_ISOTOPIC_ATOM_COUNT>
0

> <PUBCHEM_COMPONENT_COUNT>
1

> <PUBCHEM_CACTVS_TAUTO_COUNT>
1

> <PUBCHEM_CONFORMER_ID>
00535ED200000001

> <PUBCHEM_MMFF94_ENERGY>
28.1826

> <PUBCHEM_FEATURE_SELFOVERLAP>
0

> <PUBCHEM_SHAPE_FINGERPRINT>
10980938 120 18411699885169173994
11031198 65 18334298690316166510
11471102 20 18412543210603476485
12654215 9 18410854369649729684
12932764 1 18409442587997888063
13380535 21 18337394949683778131
13380536 305 18412544340311737722
14251717 144 18412542111039244151
14911166 2 18341061769749565486
14993402 34 17846785104411075766
15219456 202 18335144240881307635
15775835 57 18411421756029938030
16945 1 18411703188167797354
17834072 33 18343297081537261703
17834074 16 18338801242430823067
18186145 218 18412549799114892157
20201158 50 18413394250078617462
20559304 39 18337384929556705626
20606313 2 18412262839575694820
20645477 70 18273214196785845719
20820808 20 18408887373380624784
21501502 16 18264208015391010633
21947302 44 18409448120042177336
22854114 111 18335136501012506398
23402655 69 18341891883637806973
23590187 302 18342174457957223245
25 1 18408605881044768110
2748010 2 17980775049390069026
3060560 45 18202847643020611798
522135 26 18411980243728622827
53812653 166 18339921627499073632
549884 4 18343305894156044644
7364860 26 18412259502602851322

> <PUBCHEM_SHAPE_MULTIPOLES>
249.93
6.53
1.78
0.83
7.09
0.07
0.01
0.35
1.37
-1.3
-0.25
-0.35
0.06
0.13

> <PUBCHEM_SHAPE_SELFOVERLAP>
489.229

> <PUBCHEM_SHAPE_VOLUME>
147.7

> <PUBCHEM_COORDINATE_TYPE>
2
5
10

$$$$
