5463485
  -OEChem-11232108453D

 31 30  0     0  0  0  0  0  0999 V2000
   -4.8639    0.8649    0.3124 O   0  0  0  0  0  0  0  0  0  0  0  0
   -4.1732   -0.8918   -1.0200 O   0  0  0  0  0  0  0  0  0  0  0  0
    4.6382    0.0555    0.3014 C   0  0  0  0  0  0  0  0  0  0  0  0
    3.2355   -0.1808   -0.2690 C   0  0  0  0  0  0  0  0  0  0  0  0
    5.6612    0.4623   -0.7625 C   0  0  0  0  0  0  0  0  0  0  0  0
    2.2112   -0.6003    0.7914 C   0  0  0  0  0  0  0  0  0  0  0  0
    7.0613    0.6743   -0.2079 C   0  0  0  0  0  0  0  0  0  0  0  0
    0.8409   -0.8528    0.2289 C   0  0  0  0  0  0  0  0  0  0  0  0
   -0.2447   -0.1433    0.5723 C   0  0  0  0  0  0  0  0  0  0  0  0
   -1.5617   -0.4013    0.0328 C   0  0  0  0  0  0  0  0  0  0  0  0
   -2.6393    0.3137    0.3827 C   0  0  0  0  0  0  0  0  0  0  0  0
   -3.9573   -0.0050   -0.2092 C   0  0  0  0  0  0  0  0  0  0  0  0
   -6.2081    0.7048   -0.1533 C   0  0  0  0  0  0  0  0  0  0  0  0
    4.5883    0.8358    1.0707 H   0  0  0  0  0  0  0  0  0  0  0  0
    4.9818   -0.8595    0.7993 H   0  0  0  0  0  0  0  0  0  0  0  0
    2.8904    0.7364   -0.7633 H   0  0  0  0  0  0  0  0  0  0  0  0
    3.2908   -0.9541   -1.0460 H   0  0  0  0  0  0  0  0  0  0  0  0
    5.3292    1.3866   -1.2503 H   0  0  0  0  0  0  0  0  0  0  0  0
    5.7030   -0.3099   -1.5399 H   0  0  0  0  0  0  0  0  0  0  0  0
    2.5527   -1.5211    1.2799 H   0  0  0  0  0  0  0  0  0  0  0  0
    2.1696    0.1683    1.5733 H   0  0  0  0  0  0  0  0  0  0  0  0
    7.4410   -0.2428    0.2535 H   0  0  0  0  0  0  0  0  0  0  0  0
    7.0656    1.4663    0.5475 H   0  0  0  0  0  0  0  0  0  0  0  0
    7.7485    0.9631   -1.0093 H   0  0  0  0  0  0  0  0  0  0  0  0
    0.7542   -1.6677   -0.4863 H   0  0  0  0  0  0  0  0  0  0  0  0
   -0.1499    0.6674    1.2904 H   0  0  0  0  0  0  0  0  0  0  0  0
   -1.6477   -1.2147   -0.6834 H   0  0  0  0  0  0  0  0  0  0  0  0
   -2.5780    1.1301    1.0954 H   0  0  0  0  0  0  0  0  0  0  0  0
   -6.5843   -0.2883    0.1103 H   0  0  0  0  0  0  0  0  0  0  0  0
   -6.2552    0.8616   -1.2351 H   0  0  0  0  0  0  0  0  0  0  0  0
   -6.8301    1.4577    0.3380 H   0  0  0  0  0  0  0  0  0  0  0  0
  1 12  1  0  0  0  0
  1 13  1  0  0  0  0
  2 12  2  0  0  0  0
  3  4  1  0  0  0  0
  3  5  1  0  0  0  0
  3 14  1  0  0  0  0
  3 15  1  0  0  0  0
  4  6  1  0  0  0  0
  4 16  1  0  0  0  0
  4 17  1  0  0  0  0
  5  7  1  0  0  0  0
  5 18  1  0  0  0  0
  5 19  1  0  0  0  0
  6  8  1  0  0  0  0
  6 20  1  0  0  0  0
  6 21  1  0  0  0  0
  7 22  1  0  0  0  0
  7 23  1  0  0  0  0
  7 24  1  0  0  0  0
  8  9  2  0  0  0  0
  8 25  1  0  0  0  0
  9 10  1  0  0  0  0
  9 26  1  0  0  0  0
 10 11  2  0  0  0  0
 10 27  1  0  0  0  0
 11 12  1  0  0  0  0
 11 28  1  0  0  0  0
 13 29  1  0  0  0  0
 13 30  1  0  0  0  0
 13 31  1  0  0  0  0
M  END
> <PUBCHEM_COMPOUND_CID>
5463485

> <PUBCHEM_CONFORMER_RMSD>
0.8

> <PUBCHEM_CONFORMER_DIVERSEORDER>
1
34
42
16
4
45
33
23
18
30
24
40
10
39
17
2
27
5
13
38
36
9
7
26
31
22
32
6
29
44
14
12
11
3
43
19
25
41
21
37
28
8
15
20
35

> <PUBCHEM_MMFF94_PARTIAL_CHARGES>
13
1 -0.43
10 -0.15
11 -0.14
12 0.71
13 0.28
2 -0.57
25 0.15
26 0.15
27 0.15
28 0.15
6 0.14
8 -0.29
9 -0.15

> <PUBCHEM_EFFECTIVE_ROTOR_COUNT>
7

> <PUBCHEM_PHARMACOPHORE_FEATURES>
3
1 2 acceptor
1 7 hydrophobe
5 3 4 5 6 8 hydrophobe

> <PUBCHEM_HEAVY_ATOM_COUNT>
13

> <PUBCHEM_ATOM_DEF_STEREO_COUNT>
0

> <PUBCHEM_ATOM_UDEF_STEREO_COUNT>
0

> <PUBCHEM_BOND_DEF_STEREO_COUNT>
2

> <PUBCHEM_BOND_UDEF_STEREO_COUNT>
0

> <PUBCHEM_ISOTOPIC_ATOM_COUNT>
0

> <PUBCHEM_COMPONENT_COUNT>
1

> <PUBCHEM_CACTVS_TAUTO_COUNT>
1

> <PUBCHEM_CONFORMER_ID>
00535DBD00000001

> <PUBCHEM_MMFF94_ENERGY>
9.4463

> <PUBCHEM_FEATURE_SELFOVERLAP>
15.223

> <PUBCHEM_SHAPE_FINGERPRINT>
100836 57 17894634760041662884
10354089 29 15719393941304445420
10968037 39 18272651247375632509
114248 4 17203611497583744114
12091667 2 18343023306614090275
12714333 28 18411982464374381984
13288520 33 11743836963416757899
13533116 47 17531236228987492170
13668630 136 12607404394772090244
13964095 4 15913332364526141377
1420 363 14476964501925662350
14251718 22 17775286084187339558
14251731 8 15913608384598850694
14251764 18 7853566916352298946
14251764 46 17022621979225056483
15048467 5 18260547809938459853
15242439 84 16559026091160044795
15501527 16 17240202140174618971
15716309 27 8214140750716659088
17834072 8 16271926012623953157
17834076 25 18187083953191747880
20281389 69 17457778990648706860
20526848 3 18186526501123987492
20605781 2 17894351081715113418
20621476 8 18187364299325367318
20645477 70 17560529391836552582
20735858 18 12973606637886061905
20767249 13 10735877270443573802
20767249 213 17749110002111391832
21130983 4 17676211273141203724
22224240 67 14201400516953467328
2297311 6 16845573115352451617
23402539 116 18343862229780611582
23402655 69 18272368642126288259
23559900 14 16343691166760531098
246663 6 14620512350755038069
2767999 5 17967812765050105196
28498 318 11815904435658141521
300161 21 18040711455154831531
351380 3 11671784849778484548
42 15 8646771101377704298
42788 4 18186520999180755610
449060 50 16660363671029022178
8209 1 16415480446028557368

> <PUBCHEM_SHAPE_MULTIPOLES>
255.8
17.66
0.91
0.82
7.41
0.01
0.08
-6.91
1.32
0.16
-0.01
-0.26
0.04
-0.53

> <PUBCHEM_SHAPE_SELFOVERLAP>
475.149

> <PUBCHEM_SHAPE_VOLUME>
160.8

> <PUBCHEM_COORDINATE_TYPE>
2
5
10

$$$$
