5463904
  -OEChem-11232108563D

 36 35  0     0  0  0  0  0  0999 V2000
   -4.3566    0.5743    0.1708 O   0  0  0  0  0  0  0  0  0  0  0  0
   -3.6805   -1.3050   -0.9908 O   0  0  0  0  0  0  0  0  0  0  0  0
    3.7793    0.0650   -0.3741 C   0  0  0  0  0  0  0  0  0  0  0  0
    2.6715   -0.1774    0.6545 C   0  0  0  0  0  0  0  0  0  0  0  0
    5.1601    0.2721    0.2550 C   0  0  0  0  0  0  0  0  0  0  0  0
    1.3294   -0.4484   -0.0343 C   0  0  0  0  0  0  0  0  0  0  0  0
    6.2783    0.4416   -0.7741 C   0  0  0  0  0  0  0  0  0  0  0  0
    0.1867   -0.7326    0.9462 C   0  0  0  0  0  0  0  0  0  0  0  0
    7.6245    0.6573   -0.0992 C   0  0  0  0  0  0  0  0  0  0  0  0
   -1.1428   -0.9256    0.2729 C   0  0  0  0  0  0  0  0  0  0  0  0
   -2.1945   -0.1216    0.4793 C   0  0  0  0  0  0  0  0  0  0  0  0
   -3.4734   -0.3859   -0.2145 C   0  0  0  0  0  0  0  0  0  0  0  0
   -5.6621    0.4773   -0.4083 C   0  0  0  0  0  0  0  0  0  0  0  0
   -6.5198    1.6089    0.1167 C   0  0  0  0  0  0  0  0  0  0  0  0
    3.5257    0.9419   -0.9825 H   0  0  0  0  0  0  0  0  0  0  0  0
    3.8276   -0.7914   -1.0584 H   0  0  0  0  0  0  0  0  0  0  0  0
    2.9365   -1.0343    1.2852 H   0  0  0  0  0  0  0  0  0  0  0  0
    2.5813    0.6950    1.3123 H   0  0  0  0  0  0  0  0  0  0  0  0
    5.1263    1.1547    0.9057 H   0  0  0  0  0  0  0  0  0  0  0  0
    5.3923   -0.5858    0.8984 H   0  0  0  0  0  0  0  0  0  0  0  0
    1.4370   -1.3014   -0.7167 H   0  0  0  0  0  0  0  0  0  0  0  0
    1.0662    0.4180   -0.6550 H   0  0  0  0  0  0  0  0  0  0  0  0
    6.0581    1.2969   -1.4232 H   0  0  0  0  0  0  0  0  0  0  0  0
    6.3321   -0.4468   -1.4137 H   0  0  0  0  0  0  0  0  0  0  0  0
    0.1287    0.0857    1.6750 H   0  0  0  0  0  0  0  0  0  0  0  0
    0.4174   -1.6401    1.5173 H   0  0  0  0  0  0  0  0  0  0  0  0
    7.8869   -0.1959    0.5344 H   0  0  0  0  0  0  0  0  0  0  0  0
    7.6115    1.5574    0.5236 H   0  0  0  0  0  0  0  0  0  0  0  0
    8.4104    0.7762   -0.8515 H   0  0  0  0  0  0  0  0  0  0  0  0
   -1.2206   -1.7748   -0.4012 H   0  0  0  0  0  0  0  0  0  0  0  0
   -2.1338    0.7279    1.1512 H   0  0  0  0  0  0  0  0  0  0  0  0
   -6.1113   -0.4845   -0.1368 H   0  0  0  0  0  0  0  0  0  0  0  0
   -5.5837    0.5472   -1.4989 H   0  0  0  0  0  0  0  0  0  0  0  0
   -7.5271    1.5650   -0.3067 H   0  0  0  0  0  0  0  0  0  0  0  0
   -6.5925    1.5629    1.2084 H   0  0  0  0  0  0  0  0  0  0  0  0
   -6.0737    2.5776   -0.1315 H   0  0  0  0  0  0  0  0  0  0  0  0
  1 12  1  0  0  0  0
  1 13  1  0  0  0  0
  2 12  2  0  0  0  0
  3  4  1  0  0  0  0
  3  5  1  0  0  0  0
  3 15  1  0  0  0  0
  3 16  1  0  0  0  0
  4  6  1  0  0  0  0
  4 17  1  0  0  0  0
  4 18  1  0  0  0  0
  5  7  1  0  0  0  0
  5 19  1  0  0  0  0
  5 20  1  0  0  0  0
  6  8  1  0  0  0  0
  6 21  1  0  0  0  0
  6 22  1  0  0  0  0
  7  9  1  0  0  0  0
  7 23  1  0  0  0  0
  7 24  1  0  0  0  0
  8 10  1  0  0  0  0
  8 25  1  0  0  0  0
  8 26  1  0  0  0  0
  9 27  1  0  0  0  0
  9 28  1  0  0  0  0
  9 29  1  0  0  0  0
 10 11  2  0  0  0  0
 10 30  1  0  0  0  0
 11 12  1  0  0  0  0
 11 31  1  0  0  0  0
 13 14  1  0  0  0  0
 13 32  1  0  0  0  0
 13 33  1  0  0  0  0
 14 34  1  0  0  0  0
 14 35  1  0  0  0  0
 14 36  1  0  0  0  0
M  END
> <PUBCHEM_COMPOUND_CID>
5463904

> <PUBCHEM_CONFORMER_RMSD>
0.8

> <PUBCHEM_CONFORMER_DIVERSEORDER>
1
84
283
25
187
75
26
132
277
33
228
100
157
68
140
70
51
148
104
288
265
74
73
238
190
239
37
164
205
58
115
122
14
169
196
7
117
67
8
62
6
103
156
45
174
64
72
109
178
24
235
91
97
53
175
2
267
108
22
3
219
251
10
81
30
181
120
23
160
203
189
138
11
4
16
204
284
36
134
98
241
249
93
105
49
243
31
159
287
34
41
168
212
71
257
54
110
79
57
137
150
210
35
65
141
261
43
214
263
66
222
87
165
151
206
216
17
42
192
89
227
112
279
166
139
56
259
107
152
50
106
272
13
86
95
44
63
154
77
144
145
250
146
167
47
61
118
59
236
136
229
213
262
286
127
5
179
242
83
269
143
46
253
208
55
273
142
128
121
155
85
274
111
233
130
82
39
116
264
194
195
176
69
60
170
18
21
218
52
173
15
131
191
211
92
281
129
40
114
185
80
256
29
135
94
133
202
244
217
119
32
28
177
38
161
147
266
255
48
193
78
102
149
9
96
20
215
207
285
125
172
231
188
123
76
226
19
180
183
221
237
113
88
184
12
126
101
278
90
248
254
198
201
209
186
271
220
225
252
158
153
27
247
223
268
162
270
258
246
99
182
234
163
124
260
240
200
230
232
171
199
282
280
245
224
197
276
275

> <PUBCHEM_MMFF94_PARTIAL_CHARGES>
9
1 -0.43
10 -0.29
11 -0.14
12 0.71
13 0.28
2 -0.57
30 0.15
31 0.15
8 0.14

> <PUBCHEM_EFFECTIVE_ROTOR_COUNT>
9

> <PUBCHEM_PHARMACOPHORE_FEATURES>
2
1 2 acceptor
1 9 hydrophobe

> <PUBCHEM_HEAVY_ATOM_COUNT>
14

> <PUBCHEM_ATOM_DEF_STEREO_COUNT>
0

> <PUBCHEM_ATOM_UDEF_STEREO_COUNT>
0

> <PUBCHEM_BOND_DEF_STEREO_COUNT>
1

> <PUBCHEM_BOND_UDEF_STEREO_COUNT>
0

> <PUBCHEM_ISOTOPIC_ATOM_COUNT>
0

> <PUBCHEM_COMPONENT_COUNT>
1

> <PUBCHEM_CACTVS_TAUTO_COUNT>
1

> <PUBCHEM_CONFORMER_ID>
00535F6000000001

> <PUBCHEM_MMFF94_ENERGY>
4.7781

> <PUBCHEM_FEATURE_SELFOVERLAP>
10.148

> <PUBCHEM_SHAPE_FINGERPRINT>
100836 57 17822013107590133074
10354089 29 15285358423309759494
106641 1 14562539491551672857
10730089 173 18412263904802002377
11315181 36 16558752346776372435
117890 112 18260267465023256324
12091667 2 18410576214661789363
12555020 224 13973956611110229261
12596602 18 12035437338091227204
12670543 26 17346601841665898210
12714333 28 18341895195099608106
13288520 33 11239998954080583387
13533116 47 18040988507006285474
13668630 136 13183019622491296701
13862211 1 12607410979468229092
13964095 4 17846781797238745801
14123256 10 15841554072047811932
1420 363 11167945766868920580
14251752 14 18131350778638102250
14251764 18 16370728153466194514
14251764 46 16877661266586134547
14729087 3 18335136488191252276
15048467 5 18333168357997890572
15242439 84 17132110255997077811
15501527 16 17167861967379784955
15716309 27 8142084256258904728
15778101 99 18334579049107892987
17834072 8 17131832070743600721
17834076 25 18040716974203377674
18006028 8 12175621772039670394
20281389 69 17675922088877674788
20526848 3 18186525392721705692
20621476 38 10231770976814505476
20621476 66 18259990374596381156
20621476 8 18113899334804348398
20735858 18 12901550135107417833
20767249 213 17821449066525121056
21095086 128 9295294950558839520
21130983 4 17458348546103391852
220451 1 16370442276659819146
22224240 67 14779268626480501161
23035841 295 11024107650874617060
23402539 116 18412823611965009350
23402655 69 18342736299724835523
23559900 14 16630516375800174242
300161 21 18341891892196222778
328311 84 14345788324131401848
33532 11 9655308025424633244
42788 4 13479129112638211638
59682541 35 13912615977919080269
59755656 520 17603302669724892731
8209 1 17203611489162588600

> <PUBCHEM_SHAPE_MULTIPOLES>
276.37
20.19
1.11
0.85
12.14
0.13
-0.03
10.11
-2.5
-1.33
0
-0.02
-0.1
-0.62

> <PUBCHEM_SHAPE_SELFOVERLAP>
506.497

> <PUBCHEM_SHAPE_VOLUME>
175.8

> <PUBCHEM_COORDINATE_TYPE>
2
5
10

$$$$
