5463909
  -OEChem-11232108523D

 26 26  0     0  0  0  0  0  0999 V2000
   -1.8171    1.7169    0.5392 O   0  0  0  0  0  0  0  0  0  0  0  0
   -2.5891   -0.6401   -0.7156 O   0  0  0  0  0  0  0  0  0  0  0  0
   -2.6665   -1.7060    1.3728 O   0  0  0  0  0  0  0  0  0  0  0  0
    1.4344    0.1682   -0.0864 C   0  0  0  0  0  0  0  0  0  0  0  0
   -0.8837    0.8155    0.1243 C   0  0  0  0  0  0  0  0  0  0  0  0
    0.4691    1.0833    0.3337 C   0  0  0  0  0  0  0  0  0  0  0  0
   -1.2712   -0.3673   -0.5051 C   0  0  0  0  0  0  0  0  0  0  0  0
    1.0468   -1.0147   -0.7158 C   0  0  0  0  0  0  0  0  0  0  0  0
   -0.3059   -1.2826   -0.9251 C   0  0  0  0  0  0  0  0  0  0  0  0
    2.8450    0.4473    0.1319 C   0  0  0  0  0  0  0  0  0  0  0  0
    3.8422   -0.4663    0.1366 C   0  0  0  0  0  0  0  0  0  0  0  0
    5.2795   -0.1344    0.3750 C   0  0  0  0  0  0  0  0  0  0  0  0
   -2.1908    2.7180   -0.3997 C   0  0  0  0  0  0  0  0  0  0  0  0
   -3.1926   -1.3378    0.3341 C   0  0  0  0  0  0  0  0  0  0  0  0
    0.7595    2.0082    0.8276 H   0  0  0  0  0  0  0  0  0  0  0  0
    1.7631   -1.7464   -1.0776 H   0  0  0  0  0  0  0  0  0  0  0  0
   -0.6008   -2.2036   -1.4207 H   0  0  0  0  0  0  0  0  0  0  0  0
    3.0987    1.4891    0.3175 H   0  0  0  0  0  0  0  0  0  0  0  0
    3.6391   -1.5220   -0.0164 H   0  0  0  0  0  0  0  0  0  0  0  0
    5.8802   -0.4397   -0.4872 H   0  0  0  0  0  0  0  0  0  0  0  0
    5.4354    0.9367    0.5375 H   0  0  0  0  0  0  0  0  0  0  0  0
    5.6446   -0.6702    1.2565 H   0  0  0  0  0  0  0  0  0  0  0  0
   -2.9452    3.3593    0.0645 H   0  0  0  0  0  0  0  0  0  0  0  0
   -2.6241    2.2659   -1.2976 H   0  0  0  0  0  0  0  0  0  0  0  0
   -1.3279    3.3353   -0.6697 H   0  0  0  0  0  0  0  0  0  0  0  0
   -4.2470   -1.5026    0.0614 H   0  0  0  0  0  0  0  0  0  0  0  0
  1  5  1  0  0  0  0
  1 13  1  0  0  0  0
  2  7  1  0  0  0  0
  2 14  1  0  0  0  0
  3 14  2  0  0  0  0
  4  6  2  0  0  0  0
  4  8  1  0  0  0  0
  4 10  1  0  0  0  0
  5  6  1  0  0  0  0
  5  7  2  0  0  0  0
  6 15  1  0  0  0  0
  7  9  1  0  0  0  0
  8  9  2  0  0  0  0
  8 16  1  0  0  0  0
  9 17  1  0  0  0  0
 10 11  2  0  0  0  0
 10 18  1  0  0  0  0
 11 12  1  0  0  0  0
 11 19  1  0  0  0  0
 12 20  1  0  0  0  0
 12 21  1  0  0  0  0
 12 22  1  0  0  0  0
 13 23  1  0  0  0  0
 13 24  1  0  0  0  0
 13 25  1  0  0  0  0
 14 26  1  0  0  0  0
M  END
> <PUBCHEM_COMPOUND_CID>
5463909

> <PUBCHEM_CONFORMER_RMSD>
0.6

> <PUBCHEM_CONFORMER_DIVERSEORDER>
1
10
15
12
3
14
2
13
7
6
9
5
8
11
4

> <PUBCHEM_MMFF94_PARTIAL_CHARGES>
20
1 -0.36
10 -0.18
11 -0.29
12 0.14
13 0.28
14 0.66
15 0.15
16 0.15
17 0.15
18 0.15
19 0.15
2 -0.23
26 0.06
3 -0.57
4 0.03
5 0.08
6 -0.15
7 0.08
8 -0.15
9 -0.15

> <PUBCHEM_EFFECTIVE_ROTOR_COUNT>
4

> <PUBCHEM_PHARMACOPHORE_FEATURES>
4
1 1 acceptor
1 12 hydrophobe
1 3 acceptor
6 4 5 6 7 8 9 rings

> <PUBCHEM_HEAVY_ATOM_COUNT>
14

> <PUBCHEM_ATOM_DEF_STEREO_COUNT>
0

> <PUBCHEM_ATOM_UDEF_STEREO_COUNT>
0

> <PUBCHEM_BOND_DEF_STEREO_COUNT>
1

> <PUBCHEM_BOND_UDEF_STEREO_COUNT>
0

> <PUBCHEM_ISOTOPIC_ATOM_COUNT>
0

> <PUBCHEM_COMPONENT_COUNT>
1

> <PUBCHEM_CACTVS_TAUTO_COUNT>
1

> <PUBCHEM_CONFORMER_ID>
00535F6500000001

> <PUBCHEM_MMFF94_ENERGY>
51.2232

> <PUBCHEM_FEATURE_SELFOVERLAP>
20.297

> <PUBCHEM_SHAPE_FINGERPRINT>
11132069 177 17775292693656925886
11357001 24 18335424551790018713
11680986 33 17984711008685794926
12032990 46 18341898510851498334
12532896 13 18048036273033904357
13024252 1 12973601110452731133
13380535 76 18197774393248483837
13675066 3 18272929410937930138
14325111 11 18272367534594386092
14614273 12 18339924801406286365
15219456 202 17703235005635989974
16945 1 18272654596674780622
17844478 74 18341619247292198158
19026448 5 17676773098182283172
19422 9 18186522090561352134
200 152 15430029972711609002
20510252 161 18060419105992474736
20645477 70 17059211424411593446
20871998 184 18273496762494280396
21029758 27 18338239374735203396
21061003 4 17560801060595577416
21339142 126 18272365395342028791
22182313 1 17987249840952563758
2306618 200 17917993862692837017
23402539 116 18412255164759586295
23419403 2 15191860446681993639
23493267 7 18263072249754216376
2748010 2 17986684679069924846
5104073 3 18341044126356236530
58051976 100 18335701598987815020
6333449 129 18202276961988887516
81228 2 18264508229742531025

> <PUBCHEM_SHAPE_MULTIPOLES>
270.51
6.95
2.02
0.91
9.11
1.08
0.06
-1.04
1.42
-2.49
0.01
-0.4
-0.28
0.53

> <PUBCHEM_SHAPE_SELFOVERLAP>
556.311

> <PUBCHEM_SHAPE_VOLUME>
154.6

> <PUBCHEM_COORDINATE_TYPE>
2
5
10

$$$$
