54682930
  -OEChem-11232109473D

 18 19  0     0  0  0  0  0  0999 V2000
   -0.9136   -1.4343   -0.0204 O   0  0  0  0  0  0  0  0  0  0  0  0
   -0.6549    2.7433   -0.0166 O   0  0  0  0  0  0  0  0  0  0  0  0
   -3.1943   -1.2582    0.0280 O   0  0  0  0  0  0  0  0  0  0  0  0
    0.4552    0.5939   -0.0056 C   0  0  0  0  0  0  0  0  0  0  0  0
    0.3472   -0.7995   -0.0174 C   0  0  0  0  0  0  0  0  0  0  0  0
   -0.7878    1.3729   -0.0096 C   0  0  0  0  0  0  0  0  0  0  0  0
    1.7452    1.1401    0.0213 C   0  0  0  0  0  0  0  0  0  0  0  0
    1.4636   -1.6381   -0.0166 C   0  0  0  0  0  0  0  0  0  0  0  0
   -1.9723    0.7543    0.0041 C   0  0  0  0  0  0  0  0  0  0  0  0
    2.8747    0.3118    0.0232 C   0  0  0  0  0  0  0  0  0  0  0  0
    2.7343   -1.0744    0.0020 C   0  0  0  0  0  0  0  0  0  0  0  0
   -2.0972   -0.7118    0.0077 C   0  0  0  0  0  0  0  0  0  0  0  0
    1.8924    2.2175    0.0379 H   0  0  0  0  0  0  0  0  0  0  0  0
    1.3477   -2.7177   -0.0271 H   0  0  0  0  0  0  0  0  0  0  0  0
   -2.8978    1.3212    0.0085 H   0  0  0  0  0  0  0  0  0  0  0  0
    3.8668    0.7546    0.0412 H   0  0  0  0  0  0  0  0  0  0  0  0
    3.6139   -1.7109    0.0037 H   0  0  0  0  0  0  0  0  0  0  0  0
   -1.5460    3.1336   -0.0149 H   0  0  0  0  0  0  0  0  0  0  0  0
  1  5  1  0  0  0  0
  1 12  1  0  0  0  0
  2  6  1  0  0  0  0
  2 18  1  0  0  0  0
  3 12  2  0  0  0  0
  4  5  1  0  0  0  0
  4  6  1  0  0  0  0
  4  7  2  0  0  0  0
  5  8  2  0  0  0  0
  6  9  2  0  0  0  0
  7 10  1  0  0  0  0
  7 13  1  0  0  0  0
  8 11  1  0  0  0  0
  8 14  1  0  0  0  0
  9 12  1  0  0  0  0
  9 15  1  0  0  0  0
 10 11  2  0  0  0  0
 10 16  1  0  0  0  0
 11 17  1  0  0  0  0
M  END
> <PUBCHEM_COMPOUND_CID>
54682930

> <PUBCHEM_CONFORMER_RMSD>
0.4

> <PUBCHEM_CONFORMER_DIVERSEORDER>
1

> <PUBCHEM_MMFF94_PARTIAL_CHARGES>
18
1 -0.23
10 -0.15
11 -0.15
12 0.71
13 0.15
14 0.15
15 0.15
16 0.15
17 0.15
18 0.45
2 -0.53
3 -0.57
4 0.03
5 0.08
6 0.05
7 -0.15
8 -0.15
9 -0.14

> <PUBCHEM_EFFECTIVE_ROTOR_COUNT>
0

> <PUBCHEM_PHARMACOPHORE_FEATURES>
4
1 2 donor
1 3 acceptor
6 1 4 5 6 9 12 rings
6 4 5 7 8 10 11 rings

> <PUBCHEM_HEAVY_ATOM_COUNT>
12

> <PUBCHEM_ATOM_DEF_STEREO_COUNT>
0

> <PUBCHEM_ATOM_UDEF_STEREO_COUNT>
0

> <PUBCHEM_BOND_DEF_STEREO_COUNT>
0

> <PUBCHEM_BOND_UDEF_STEREO_COUNT>
0

> <PUBCHEM_ISOTOPIC_ATOM_COUNT>
0

> <PUBCHEM_COMPONENT_COUNT>
1

> <PUBCHEM_CACTVS_TAUTO_COUNT>
3

> <PUBCHEM_CONFORMER_ID>
0342653200000001

> <PUBCHEM_MMFF94_ENERGY>
37.031

> <PUBCHEM_FEATURE_SELFOVERLAP>
20.323

> <PUBCHEM_SHAPE_FINGERPRINT>
10967382 1 18194683902085390566
11206711 2 18337113367227033068
12032990 46 18410300245474585843
12423570 1 12175612962945857546
12897270 3 18410572872886822862
13380535 76 17980191981414408773
14325111 11 18410856551271556972
161256 15 18341612646207084536
16945 1 18266177219177931566
193761 8 17978509732829220847
19973954 147 18339080367843696652
20201158 50 18335418006112283243
20871998 184 18201718414334519527
21040471 1 17906171750615232044
21501502 16 18338239254364998416
2334 1 18410575106164295653
23463225 33 18409450297163341446
23552423 10 18260833674318889086
23559900 14 17478894888523584518
241688 4 18410012117619667449
2748010 2 18411133640959986557
5084963 1 18272933795556162106
528886 8 18411695491338470099

> <PUBCHEM_SHAPE_MULTIPOLES>
229.35
4.02
2.13
0.59
0.06
0.79
0
-1.19
0.04
-0.49
-0.01
0.04
0
0.02

> <PUBCHEM_SHAPE_SELFOVERLAP>
501.732

> <PUBCHEM_SHAPE_VOLUME>
123.9

> <PUBCHEM_COORDINATE_TYPE>
2
5
10

$$$$
