5472296
  -OEChem-11232109263D

 43 44  0     1  0  0  0  0  0999 V2000
    2.3397    1.1738   -1.5381 O   0  0  0  0  0  0  0  0  0  0  0  0
    3.6651   -0.8455    1.0957 O   0  0  0  0  0  0  0  0  0  0  0  0
    2.9887   -1.4486   -1.0293 O   0  0  0  0  0  0  0  0  0  0  0  0
   -1.9923   -1.3563   -0.1076 C   0  0  0  0  0  0  0  0  0  0  0  0
   -1.5638    0.0111    0.5340 C   0  0  2  0  0  0  0  0  0  0  0  0
    1.8774    1.5984   -0.2711 C   0  0  2  0  0  0  0  0  0  0  0  0
   -2.8660   -1.0909   -1.3564 C   0  0  0  0  0  0  0  0  0  0  0  0
    3.1468    0.8422   -0.4008 C   0  0  1  0  0  0  0  0  0  0  0  0
   -2.7342    0.9729    0.6870 C   0  0  0  0  0  0  0  0  0  0  0  0
   -0.4537    0.7020   -0.2136 C   0  0  0  0  0  0  0  0  0  0  0  0
   -4.0941   -0.2266   -1.0574 C   0  0  0  0  0  0  0  0  0  0  0  0
    0.7221    0.9223    0.3896 C   0  0  0  0  0  0  0  0  0  0  0  0
   -2.7886   -2.1916    0.9259 C   0  0  0  0  0  0  0  0  0  0  0  0
   -0.7697   -2.2053   -0.5188 C   0  0  0  0  0  0  0  0  0  0  0  0
   -3.8584    0.8504   -0.0415 C   0  0  0  0  0  0  0  0  0  0  0  0
    1.9129    3.0596   -0.0770 C   0  0  0  0  0  0  0  0  0  0  0  0
    3.2472   -0.6066   -0.1800 C   0  0  0  0  0  0  0  0  0  0  0  0
   -2.5853    2.0641    1.7113 C   0  0  0  0  0  0  0  0  0  0  0  0
    3.8062   -2.2253    1.4482 C   0  0  0  0  0  0  0  0  0  0  0  0
   -1.2161   -0.2278    1.5506 H   0  0  0  0  0  0  0  0  0  0  0  0
   -3.1949   -2.0366   -1.8061 H   0  0  0  0  0  0  0  0  0  0  0  0
   -2.2642   -0.5879   -2.1251 H   0  0  0  0  0  0  0  0  0  0  0  0
    4.0768    1.3893   -0.2873 H   0  0  0  0  0  0  0  0  0  0  0  0
   -0.6144    1.0180   -1.2402 H   0  0  0  0  0  0  0  0  0  0  0  0
    0.8769    0.6106    1.4194 H   0  0  0  0  0  0  0  0  0  0  0  0
   -4.9093   -0.8644   -0.6948 H   0  0  0  0  0  0  0  0  0  0  0  0
   -4.4459    0.2275   -1.9910 H   0  0  0  0  0  0  0  0  0  0  0  0
   -3.1421   -3.1296    0.4822 H   0  0  0  0  0  0  0  0  0  0  0  0
   -2.1592   -2.4503    1.7853 H   0  0  0  0  0  0  0  0  0  0  0  0
   -3.6645   -1.6637    1.3145 H   0  0  0  0  0  0  0  0  0  0  0  0
   -1.0809   -3.1946   -0.8740 H   0  0  0  0  0  0  0  0  0  0  0  0
   -0.2013   -1.7405   -1.3315 H   0  0  0  0  0  0  0  0  0  0  0  0
   -0.0903   -2.3554    0.3280 H   0  0  0  0  0  0  0  0  0  0  0  0
   -4.6755    1.5515    0.1092 H   0  0  0  0  0  0  0  0  0  0  0  0
    1.9907    3.3127    0.9863 H   0  0  0  0  0  0  0  0  0  0  0  0
    2.7673    3.5222   -0.5847 H   0  0  0  0  0  0  0  0  0  0  0  0
    1.0077    3.5337   -0.4729 H   0  0  0  0  0  0  0  0  0  0  0  0
   -2.3894    1.6331    2.6985 H   0  0  0  0  0  0  0  0  0  0  0  0
   -3.4885    2.6781    1.7931 H   0  0  0  0  0  0  0  0  0  0  0  0
   -1.7566    2.7300    1.4509 H   0  0  0  0  0  0  0  0  0  0  0  0
    4.1427   -2.2782    2.4871 H   0  0  0  0  0  0  0  0  0  0  0  0
    4.5557   -2.7043    0.8110 H   0  0  0  0  0  0  0  0  0  0  0  0
    2.8427   -2.7373    1.3646 H   0  0  0  0  0  0  0  0  0  0  0  0
  1  6  1  0  0  0  0
  1  8  1  0  0  0  0
  2 17  1  0  0  0  0
  2 19  1  0  0  0  0
  3 17  2  0  0  0  0
  4  5  1  0  0  0  0
  4  7  1  0  0  0  0
  4 13  1  0  0  0  0
  4 14  1  0  0  0  0
  5  9  1  0  0  0  0
  5 10  1  0  0  0  0
  5 20  1  0  0  0  0
  6  8  1  0  0  0  0
  6 12  1  0  0  0  0
  6 16  1  0  0  0  0
  7 11  1  0  0  0  0
  7 21  1  0  0  0  0
  7 22  1  0  0  0  0
  8 17  1  0  0  0  0
  8 23  1  0  0  0  0
  9 15  2  0  0  0  0
  9 18  1  0  0  0  0
 10 12  2  0  0  0  0
 10 24  1  0  0  0  0
 11 15  1  0  0  0  0
 11 26  1  0  0  0  0
 11 27  1  0  0  0  0
 12 25  1  0  0  0  0
 13 28  1  0  0  0  0
 13 29  1  0  0  0  0
 13 30  1  0  0  0  0
 14 31  1  0  0  0  0
 14 32  1  0  0  0  0
 14 33  1  0  0  0  0
 15 34  1  0  0  0  0
 16 35  1  0  0  0  0
 16 36  1  0  0  0  0
 16 37  1  0  0  0  0
 18 38  1  0  0  0  0
 18 39  1  0  0  0  0
 18 40  1  0  0  0  0
 19 41  1  0  0  0  0
 19 42  1  0  0  0  0
 19 43  1  0  0  0  0
M  END
> <PUBCHEM_COMPOUND_CID>
5472296

> <PUBCHEM_CONFORMER_RMSD>
0.8

> <PUBCHEM_CONFORMER_DIVERSEORDER>
14
50
137
83
57
131
94
123
3
142
164
153
4
180
152
26
173
178
52
1
140
102
126
103
60
74
81
154
82
132
41
79
6
139
87
66
171
19
69
59
177
67
167
176
61
144
147
146
111
110
134
115
54
84
47
51
158
98
156
151
114
25
141
116
166
120
77
28
35
55
30
32
155
165
135
148
31
157
75
70
42
161
150
86
100
101
20
39
48
37
138
15
106
73
80
118
174
159
40
11
160
130
5
56
90
113
127
92
64
22
163
95
136
172
181
99
63
62
89
162
71
36
45
104
34
53
117
49
105
21
29
10
179
97
38
8
76
13
175
125
108
65
23
168
17
33
58
12
44
107
143
24
145
133
112
18
46
91
78
96
85
121
124
129
2
149
169
109
43
16
119
68
93
170
122
27
72
9
88
7
128

> <PUBCHEM_MMFF94_PARTIAL_CHARGES>
19
1 -0.3
10 -0.29
11 0.14
12 -0.19
15 -0.29
16 0.09
17 0.72
18 0.14
19 0.28
2 -0.43
23 0.1
24 0.15
25 0.15
3 -0.57
34 0.15
5 0.28
6 0.09
8 0.05
9 -0.28

> <PUBCHEM_EFFECTIVE_ROTOR_COUNT>
5.4

> <PUBCHEM_PHARMACOPHORE_FEATURES>
4
1 1 acceptor
1 3 acceptor
3 4 13 14 hydrophobe
6 4 5 7 9 11 15 rings

> <PUBCHEM_HEAVY_ATOM_COUNT>
19

> <PUBCHEM_ATOM_DEF_STEREO_COUNT>
0

> <PUBCHEM_ATOM_UDEF_STEREO_COUNT>
3

> <PUBCHEM_BOND_DEF_STEREO_COUNT>
1

> <PUBCHEM_BOND_UDEF_STEREO_COUNT>
0

> <PUBCHEM_ISOTOPIC_ATOM_COUNT>
0

> <PUBCHEM_COMPONENT_COUNT>
1

> <PUBCHEM_CACTVS_TAUTO_COUNT>
1

> <PUBCHEM_CONFORMER_ID>
005380280000000E

> <PUBCHEM_MMFF94_ENERGY>
34.802

> <PUBCHEM_FEATURE_SELFOVERLAP>
20.302

> <PUBCHEM_SHAPE_FINGERPRINT>
10062212 137 18343575231766413823
10616163 171 18197785611602944750
12553582 1 18263370196421136874
12592029 89 18262523581173793811
12633257 1 18335987458614405838
12670545 2 18334847286478711983
12788726 201 17988938776934310785
13083527 12 15623086712214614493
13140716 1 18410859862548794393
13533116 47 18334853961358887323
14144814 61 18342185491554250184
14178342 30 17916306047866917482
14787075 74 11311185751910308245
15420108 30 17192916285935342561
15442244 35 18341055137903679560
16752209 62 18060426810889490471
17349148 13 18272362058120888599
17492 89 18271527592988437959
18186145 218 17821727264468171615
192875 21 18271796917649529437
20645477 70 18341332313554486062
21524375 3 18057057804789931665
2255824 54 18187652457128895636
23557571 272 16559034878415128217
23559900 14 17775005691474159904
23598291 2 18410586075843449532
5161694 15 16443337646485786846
58051976 100 18335707182033700221
6992083 37 18339091392809117425
7097593 13 18408327678901631072
74978 22 18410296955513630957
7615 1 18343024414573546161
9709674 26 18271533090493296510
9862522 239 17904764371453295945
9882013 296 11455888087452579743
9981440 41 17615117115650065808

> <PUBCHEM_SHAPE_MULTIPOLES>
373.4
7.83
2.86
1.35
1.57
0.26
0.14
-1.68
0.19
1.02
0.6
-0.11
-0.13
-1.53

> <PUBCHEM_SHAPE_SELFOVERLAP>
760.273

> <PUBCHEM_SHAPE_VOLUME>
217.9

> <PUBCHEM_COORDINATE_TYPE>
2
5
10

$$$$
