5478986
  -OEChem-11232109273D

 20 20  0     1  0  0  0  0  0999 V2000
    1.9642    1.3958    1.1174 O   0  0  0  0  0  0  0  0  0  0  0  0
    1.4979   -0.2253   -0.6412 C   0  0  2  0  0  0  0  0  0  0  0  0
    0.0441   -0.1231   -0.3231 C   0  0  0  0  0  0  0  0  0  0  0  0
    2.0438   -1.6611   -0.5561 C   0  0  0  0  0  0  0  0  0  0  0  0
   -0.5252   -0.9779    0.6207 C   0  0  0  0  0  0  0  0  0  0  0  0
   -0.7461    0.8273   -0.9696 C   0  0  0  0  0  0  0  0  0  0  0  0
    2.3863    0.6552    0.2346 C   0  0  0  0  0  0  0  0  0  0  0  0
   -1.8846   -0.8824    0.9179 C   0  0  0  0  0  0  0  0  0  0  0  0
   -2.1055    0.9231   -0.6723 C   0  0  0  0  0  0  0  0  0  0  0  0
   -2.6749    0.0683    0.2716 C   0  0  0  0  0  0  0  0  0  0  0  0
    1.6563    0.1142   -1.6737 H   0  0  0  0  0  0  0  0  0  0  0  0
    2.1333   -2.0135    0.4776 H   0  0  0  0  0  0  0  0  0  0  0  0
    3.0526   -1.7045   -0.9840 H   0  0  0  0  0  0  0  0  0  0  0  0
    1.4172   -2.3638   -1.1161 H   0  0  0  0  0  0  0  0  0  0  0  0
    0.0595   -1.7175    1.1582 H   0  0  0  0  0  0  0  0  0  0  0  0
   -0.3152    1.5013   -1.7053 H   0  0  0  0  0  0  0  0  0  0  0  0
    3.4658    0.6141    0.0061 H   0  0  0  0  0  0  0  0  0  0  0  0
   -2.3276   -1.5448    1.6559 H   0  0  0  0  0  0  0  0  0  0  0  0
   -2.7206    1.6638   -1.1749 H   0  0  0  0  0  0  0  0  0  0  0  0
   -3.7331    0.1436    0.5041 H   0  0  0  0  0  0  0  0  0  0  0  0
  1  7  2  0  0  0  0
  2  3  1  0  0  0  0
  2  4  1  0  0  0  0
  2  7  1  0  0  0  0
  2 11  1  0  0  0  0
  3  5  2  0  0  0  0
  3  6  1  0  0  0  0
  4 12  1  0  0  0  0
  4 13  1  0  0  0  0
  4 14  1  0  0  0  0
  5  8  1  0  0  0  0
  5 15  1  0  0  0  0
  6  9  2  0  0  0  0
  6 16  1  0  0  0  0
  7 17  1  0  0  0  0
  8 10  2  0  0  0  0
  8 18  1  0  0  0  0
  9 10  1  0  0  0  0
  9 19  1  0  0  0  0
 10 20  1  0  0  0  0
M  END
> <PUBCHEM_COMPOUND_CID>
5478986

> <PUBCHEM_CONFORMER_RMSD>
0.4

> <PUBCHEM_CONFORMER_DIVERSEORDER>
1
6
8
5
7
3
4
2

> <PUBCHEM_MMFF94_PARTIAL_CHARGES>
15
1 -0.57
10 -0.15
15 0.15
16 0.15
17 0.06
18 0.15
19 0.15
2 0.2
20 0.15
3 -0.14
5 -0.15
6 -0.15
7 0.45
8 -0.15
9 -0.15

> <PUBCHEM_EFFECTIVE_ROTOR_COUNT>
2

> <PUBCHEM_PHARMACOPHORE_FEATURES>
3
1 1 acceptor
1 4 hydrophobe
6 3 5 6 8 9 10 rings

> <PUBCHEM_HEAVY_ATOM_COUNT>
10

> <PUBCHEM_ATOM_DEF_STEREO_COUNT>
1

> <PUBCHEM_ATOM_UDEF_STEREO_COUNT>
0

> <PUBCHEM_BOND_DEF_STEREO_COUNT>
0

> <PUBCHEM_BOND_UDEF_STEREO_COUNT>
0

> <PUBCHEM_ISOTOPIC_ATOM_COUNT>
0

> <PUBCHEM_COMPONENT_COUNT>
1

> <PUBCHEM_CACTVS_TAUTO_COUNT>
2

> <PUBCHEM_CONFORMER_ID>
00539A4A00000001

> <PUBCHEM_MMFF94_ENERGY>
22.9393

> <PUBCHEM_FEATURE_SELFOVERLAP>
15.223

> <PUBCHEM_SHAPE_FINGERPRINT>
10857977 72 17968381246631123377
12326174 3 17703801284167973142
12423570 1 15021680480565422334
12524768 44 17895769515796595181
12716758 59 17968660410894381707
12932741 1 18408605829320499031
12932764 1 18272661146658194943
15219456 202 18409168801070490510
15310529 11 17346596374557528817
16945 1 18188499072180930271
19973954 147 18411985728038239725
20201158 50 18338800009527178782
20645464 45 18334570243955307776
21040471 1 17604427362903576165
23552423 10 17313399906243245863
2748010 2 18113904814713301591
29004967 10 18131074775175602086
369184 2 18202283602203187583
5084963 1 18114754724042188527

> <PUBCHEM_SHAPE_MULTIPOLES>
199.93
3.78
1.43
1.06
0.05
0.18
0.1
-0.17
0.31
-0.33
0.04
-0.21
-0.13
0.92

> <PUBCHEM_SHAPE_SELFOVERLAP>
409.3

> <PUBCHEM_SHAPE_VOLUME>
115.4

> <PUBCHEM_COORDINATE_TYPE>
2
5
10

$$$$
