548221
  -OEChem-11232109463D

 29 28  0     0  0  0  0  0  0999 V2000
   -7.0752   -0.4430   -0.0954 Br  0  0  0  0  0  0  0  0  0  0  0  0
    5.7900   -0.7064   -0.0140 O   0  0  0  0  0  0  0  0  0  0  0  0
    4.7462    1.3124   -0.0481 O   0  0  0  0  0  0  0  0  0  0  0  0
   -0.3485    0.3425    0.0157 C   0  0  0  0  0  0  0  0  0  0  0  0
   -1.6878   -0.3996    0.0483 C   0  0  0  0  0  0  0  0  0  0  0  0
    0.8645   -0.5911    0.0010 C   0  0  0  0  0  0  0  0  0  0  0  0
   -2.9016    0.5335    0.0377 C   0  0  0  0  0  0  0  0  0  0  0  0
    2.1738    0.2037    0.0414 C   0  0  0  0  0  0  0  0  0  0  0  0
   -4.2108   -0.2648    0.0262 C   0  0  0  0  0  0  0  0  0  0  0  0
    3.4052   -0.6964   -0.0003 C   0  0  0  0  0  0  0  0  0  0  0  0
   -5.4479    0.6196    0.0090 C   0  0  0  0  0  0  0  0  0  0  0  0
    4.6920    0.0896   -0.0214 C   0  0  0  0  0  0  0  0  0  0  0  0
   -0.2882    1.0020    0.8904 H   0  0  0  0  0  0  0  0  0  0  0  0
   -0.3167    0.9887   -0.8704 H   0  0  0  0  0  0  0  0  0  0  0  0
   -1.7257   -1.0328    0.9434 H   0  0  0  0  0  0  0  0  0  0  0  0
   -1.7416   -1.0718   -0.8172 H   0  0  0  0  0  0  0  0  0  0  0  0
    0.8202   -1.2663    0.8638 H   0  0  0  0  0  0  0  0  0  0  0  0
    0.8362   -1.2142   -0.9009 H   0  0  0  0  0  0  0  0  0  0  0  0
   -2.8741    1.1843    0.9196 H   0  0  0  0  0  0  0  0  0  0  0  0
   -2.8602    1.1812   -0.8462 H   0  0  0  0  0  0  0  0  0  0  0  0
    2.2019    0.8199    0.9490 H   0  0  0  0  0  0  0  0  0  0  0  0
    2.2002    0.8986   -0.8077 H   0  0  0  0  0  0  0  0  0  0  0  0
   -4.2201   -0.9233   -0.8519 H   0  0  0  0  0  0  0  0  0  0  0  0
   -4.2433   -0.9214    0.9050 H   0  0  0  0  0  0  0  0  0  0  0  0
    3.3780   -1.3205   -0.9004 H   0  0  0  0  0  0  0  0  0  0  0  0
    3.4161   -1.3462    0.8817 H   0  0  0  0  0  0  0  0  0  0  0  0
   -5.5256    1.2216    0.9186 H   0  0  0  0  0  0  0  0  0  0  0  0
   -5.4577    1.2809   -0.8620 H   0  0  0  0  0  0  0  0  0  0  0  0
    6.6206   -0.1847   -0.0309 H   0  0  0  0  0  0  0  0  0  0  0  0
  1 11  1  0  0  0  0
  2 12  1  0  0  0  0
  2 29  1  0  0  0  0
  3 12  2  0  0  0  0
  4  5  1  0  0  0  0
  4  6  1  0  0  0  0
  4 13  1  0  0  0  0
  4 14  1  0  0  0  0
  5  7  1  0  0  0  0
  5 15  1  0  0  0  0
  5 16  1  0  0  0  0
  6  8  1  0  0  0  0
  6 17  1  0  0  0  0
  6 18  1  0  0  0  0
  7  9  1  0  0  0  0
  7 19  1  0  0  0  0
  7 20  1  0  0  0  0
  8 10  1  0  0  0  0
  8 21  1  0  0  0  0
  8 22  1  0  0  0  0
  9 11  1  0  0  0  0
  9 23  1  0  0  0  0
  9 24  1  0  0  0  0
 10 12  1  0  0  0  0
 10 25  1  0  0  0  0
 10 26  1  0  0  0  0
 11 27  1  0  0  0  0
 11 28  1  0  0  0  0
M  END
> <PUBCHEM_COMPOUND_CID>
548221

> <PUBCHEM_CONFORMER_RMSD>
0.8

> <PUBCHEM_CONFORMER_DIVERSEORDER>
1
93
107
206
186
4
191
31
177
47
200
44
28
207
6
12
89
138
72
22
92
202
137
36
56
189
10
23
80
67
204
144
199
117
32
17
197
40
113
136
37
73
201
11
75
142
43
133
161
130
70
97
187
64
94
183
68
34
26
188
167
102
46
18
180
15
176
41
154
57
151
49
182
193
38
208
101
190
85
63
13
158
149
35
153
27
86
160
170
196
19
65
127
163
115
25
121
52
178
126
110
29
203
24
91
124
20
62
69
172
14
166
184
9
140
54
195
162
45
181
5
21
106
77
209
143
60
120
8
39
61
156
210
165
152
2
33
194
78
125
148
83
146
119
169
66
135
122
50
84
134
74
198
71
109
179
42
76
16
150
55
131
157
30
90
185
48
111
105
168
211
95
51
205
79
82
104
129
108
88
174
81
103
98
59
192
3
128
132
123
100
118
96
7
175
87
147
99
58
116
173
53
171
139
112
164
114
155
145
141
159

> <PUBCHEM_MMFF94_PARTIAL_CHARGES>
7
1 -0.23
10 0.06
11 0.23
12 0.66
2 -0.65
29 0.5
3 -0.57

> <PUBCHEM_EFFECTIVE_ROTOR_COUNT>
8

> <PUBCHEM_PHARMACOPHORE_FEATURES>
4
1 1 hydrophobe
1 2 acceptor
1 3 acceptor
3 2 3 12 anion

> <PUBCHEM_HEAVY_ATOM_COUNT>
12

> <PUBCHEM_ATOM_DEF_STEREO_COUNT>
0

> <PUBCHEM_ATOM_UDEF_STEREO_COUNT>
0

> <PUBCHEM_BOND_DEF_STEREO_COUNT>
0

> <PUBCHEM_BOND_UDEF_STEREO_COUNT>
0

> <PUBCHEM_ISOTOPIC_ATOM_COUNT>
0

> <PUBCHEM_COMPONENT_COUNT>
1

> <PUBCHEM_CACTVS_TAUTO_COUNT>
1

> <PUBCHEM_CONFORMER_ID>
00085D7D00000001

> <PUBCHEM_MMFF94_ENERGY>
2.1944

> <PUBCHEM_FEATURE_SELFOVERLAP>
20.355

> <PUBCHEM_SHAPE_FINGERPRINT>
11287383 113 18335986440712236563
12091667 2 18260267443933450769
12815109 37 16732983124488704373
13533116 47 17095795525946520530
14123238 8 18410575080378667629
1420 363 18408890637703625051
14251718 22 18411136940096172003
14251732 16 18336828697195593443
14251764 46 18412824685743704507
17834072 33 18130785689569486477
17834076 25 17846779607222065287
20621476 38 18201722791476478038
20645477 70 18200033928657413718
20767249 213 18333169483685361149
22896161 15 18411136983162038911
23035841 295 17489586766812972039
23402539 116 18341889697631088319
23521765 1 18341894086602452259
42788 4 18410575080705760713
4463277 17 18411981356494690497
8209 1 18408886235256502182

> <PUBCHEM_SHAPE_MULTIPOLES>
241.16
17.71
0.93
0.62
8.48
0.08
0
-0.65
0.49
-0.37
0.01
0.17
-0.01
-0.05

> <PUBCHEM_SHAPE_SELFOVERLAP>
424.971

> <PUBCHEM_SHAPE_VOLUME>
158.9

> <PUBCHEM_COORDINATE_TYPE>
2
5
10

$$$$
