548235
  -OEChem-11232109243D

 23 23  0     1  0  0  0  0  0999 V2000
    0.2199    1.3660    0.3145 S   0  0  0  0  0  0  0  0  0  0  0  0
   -1.0068   -1.0711    0.4696 O   0  0  0  0  0  0  0  0  0  0  0  0
   -1.2113    0.2668   -0.0021 C   0  0  0  0  0  0  0  0  0  0  0  0
    1.5554    0.2978   -0.3201 C   0  0  2  0  0  0  0  0  0  0  0  0
    1.4263   -1.1158    0.2496 C   0  0  0  0  0  0  0  0  0  0  0  0
    0.0950   -1.7715   -0.0961 C   0  0  0  0  0  0  0  0  0  0  0  0
   -2.3822    0.8168    0.8226 C   0  0  0  0  0  0  0  0  0  0  0  0
   -1.5974    0.2949   -1.4857 C   0  0  0  0  0  0  0  0  0  0  0  0
    2.9011    0.9161    0.0477 C   0  0  0  0  0  0  0  0  0  0  0  0
    1.4775    0.2665   -1.4124 H   0  0  0  0  0  0  0  0  0  0  0  0
    1.5407   -1.0866    1.3414 H   0  0  0  0  0  0  0  0  0  0  0  0
    2.2387   -1.7415   -0.1394 H   0  0  0  0  0  0  0  0  0  0  0  0
   -0.0319   -1.8846   -1.1776 H   0  0  0  0  0  0  0  0  0  0  0  0
    0.0786   -2.7819    0.3265 H   0  0  0  0  0  0  0  0  0  0  0  0
   -2.6451    1.8440    0.5454 H   0  0  0  0  0  0  0  0  0  0  0  0
   -3.2740    0.1937    0.6813 H   0  0  0  0  0  0  0  0  0  0  0  0
   -2.1643    0.7859    1.8973 H   0  0  0  0  0  0  0  0  0  0  0  0
   -1.9073    1.2957   -1.8073 H   0  0  0  0  0  0  0  0  0  0  0  0
   -0.7811   -0.0271   -2.1399 H   0  0  0  0  0  0  0  0  0  0  0  0
   -2.4289   -0.3942   -1.6752 H   0  0  0  0  0  0  0  0  0  0  0  0
    3.0360    0.9869    1.1330 H   0  0  0  0  0  0  0  0  0  0  0  0
    3.7209    0.3052   -0.3465 H   0  0  0  0  0  0  0  0  0  0  0  0
    3.0095    1.9195   -0.3791 H   0  0  0  0  0  0  0  0  0  0  0  0
  1  3  1  0  0  0  0
  1  4  1  0  0  0  0
  2  3  1  0  0  0  0
  2  6  1  0  0  0  0
  3  7  1  0  0  0  0
  3  8  1  0  0  0  0
  4  5  1  0  0  0  0
  4  9  1  0  0  0  0
  4 10  1  0  0  0  0
  5  6  1  0  0  0  0
  5 11  1  0  0  0  0
  5 12  1  0  0  0  0
  6 13  1  0  0  0  0
  6 14  1  0  0  0  0
  7 15  1  0  0  0  0
  7 16  1  0  0  0  0
  7 17  1  0  0  0  0
  8 18  1  0  0  0  0
  8 19  1  0  0  0  0
  8 20  1  0  0  0  0
  9 21  1  0  0  0  0
  9 22  1  0  0  0  0
  9 23  1  0  0  0  0
M  END
> <PUBCHEM_COMPOUND_CID>
548235

> <PUBCHEM_CONFORMER_RMSD>
0.4

> <PUBCHEM_CONFORMER_DIVERSEORDER>
5
4
6
3
2
1

> <PUBCHEM_MMFF94_PARTIAL_CHARGES>
5
1 -0.46
2 -0.56
3 0.51
4 0.23
6 0.28

> <PUBCHEM_EFFECTIVE_ROTOR_COUNT>
1.2

> <PUBCHEM_PHARMACOPHORE_FEATURES>
3
1 2 acceptor
3 3 7 8 hydrophobe
6 1 2 3 4 5 6 rings

> <PUBCHEM_HEAVY_ATOM_COUNT>
9

> <PUBCHEM_ATOM_DEF_STEREO_COUNT>
0

> <PUBCHEM_ATOM_UDEF_STEREO_COUNT>
1

> <PUBCHEM_BOND_DEF_STEREO_COUNT>
0

> <PUBCHEM_BOND_UDEF_STEREO_COUNT>
0

> <PUBCHEM_ISOTOPIC_ATOM_COUNT>
0

> <PUBCHEM_COMPONENT_COUNT>
1

> <PUBCHEM_CACTVS_TAUTO_COUNT>
1

> <PUBCHEM_CONFORMER_ID>
00085D8B00000005

> <PUBCHEM_MMFF94_ENERGY>
19.8564

> <PUBCHEM_FEATURE_SELFOVERLAP>
15.223

> <PUBCHEM_SHAPE_FINGERPRINT>
10857977 72 16951149308203883289
12423570 1 10792905575632785373
13024252 1 14707473854302359756
16945 1 17822301196616000132
18185500 45 18056466266816204319
20653085 51 16988577821937248560
21040471 1 18411143558202905818
23235685 24 18410576188585985000
241688 4 16897645684842454194
2748010 2 18410019840076470814
29004967 10 17968669232472559592
369184 2 16081080515342516712
5084963 1 17968372480439302896
528862 383 18335143033652437155

> <PUBCHEM_SHAPE_MULTIPOLES>
183.2
3.24
1.64
0.99
0.92
0.47
0.29
-1.13
-0.12
0.3
-0.2
-0.56
-0.09
-0.14

> <PUBCHEM_SHAPE_SELFOVERLAP>
337.926

> <PUBCHEM_SHAPE_VOLUME>
117.1

> <PUBCHEM_COORDINATE_TYPE>
2
5
10

$$$$
