548275
  -OEChem-11232109043D

 26 25  0     0  0  0  0  0  0999 V2000
    6.3824   -0.6291    0.0321 Br  0  0  0  0  0  0  0  0  0  0  0  0
   -5.2250    0.5532    0.0191 O   0  0  0  0  0  0  0  0  0  0  0  0
   -4.0646   -1.3988    0.0062 O   0  0  0  0  0  0  0  0  0  0  0  0
    0.9913   -0.2483   -0.0182 C   0  0  0  0  0  0  0  0  0  0  0  0
   -0.2585    0.6362   -0.0096 C   0  0  0  0  0  0  0  0  0  0  0  0
    2.2995    0.5494   -0.0012 C   0  0  0  0  0  0  0  0  0  0  0  0
   -1.5680   -0.1615   -0.0289 C   0  0  0  0  0  0  0  0  0  0  0  0
    3.5519   -0.3290   -0.0325 C   0  0  0  0  0  0  0  0  0  0  0  0
   -2.8393    0.6816   -0.0003 C   0  0  0  0  0  0  0  0  0  0  0  0
    4.8115    0.5208    0.0161 C   0  0  0  0  0  0  0  0  0  0  0  0
   -4.0812   -0.1744    0.0171 C   0  0  0  0  0  0  0  0  0  0  0  0
    0.9667   -0.9163    0.8515 H   0  0  0  0  0  0  0  0  0  0  0  0
    0.9725   -0.8876   -0.9094 H   0  0  0  0  0  0  0  0  0  0  0  0
   -0.2348    1.3050   -0.8787 H   0  0  0  0  0  0  0  0  0  0  0  0
   -0.2417    1.2746    0.8823 H   0  0  0  0  0  0  0  0  0  0  0  0
    2.3203    1.1778    0.8980 H   0  0  0  0  0  0  0  0  0  0  0  0
    2.3152    1.2291   -0.8623 H   0  0  0  0  0  0  0  0  0  0  0  0
   -1.5794   -0.7985   -0.9231 H   0  0  0  0  0  0  0  0  0  0  0  0
   -1.5722   -0.8453    0.8301 H   0  0  0  0  0  0  0  0  0  0  0  0
    3.5462   -0.9445   -0.9406 H   0  0  0  0  0  0  0  0  0  0  0  0
    3.5314   -1.0210    0.8188 H   0  0  0  0  0  0  0  0  0  0  0  0
   -2.8463    1.3104    0.8965 H   0  0  0  0  0  0  0  0  0  0  0  0
   -2.8761    1.3238   -0.8867 H   0  0  0  0  0  0  0  0  0  0  0  0
    4.8619    1.1275    0.9244 H   0  0  0  0  0  0  0  0  0  0  0  0
    4.9038    1.1670   -0.8611 H   0  0  0  0  0  0  0  0  0  0  0  0
   -6.0225   -0.0179    0.0183 H   0  0  0  0  0  0  0  0  0  0  0  0
  1 10  1  0  0  0  0
  2 11  1  0  0  0  0
  2 26  1  0  0  0  0
  3 11  2  0  0  0  0
  4  5  1  0  0  0  0
  4  6  1  0  0  0  0
  4 12  1  0  0  0  0
  4 13  1  0  0  0  0
  5  7  1  0  0  0  0
  5 14  1  0  0  0  0
  5 15  1  0  0  0  0
  6  8  1  0  0  0  0
  6 16  1  0  0  0  0
  6 17  1  0  0  0  0
  7  9  1  0  0  0  0
  7 18  1  0  0  0  0
  7 19  1  0  0  0  0
  8 10  1  0  0  0  0
  8 20  1  0  0  0  0
  8 21  1  0  0  0  0
  9 11  1  0  0  0  0
  9 22  1  0  0  0  0
  9 23  1  0  0  0  0
 10 24  1  0  0  0  0
 10 25  1  0  0  0  0
M  END
> <PUBCHEM_COMPOUND_CID>
548275

> <PUBCHEM_CONFORMER_RMSD>
0.8

> <PUBCHEM_CONFORMER_DIVERSEORDER>
1
10
88
2
83
38
5
82
86
44
89
43
27
14
39
78
8
17
4
87
13
24
15
92
80
50
62
85
18
20
26
93
22
11
48
45
60
6
36
91
79
19
57
34
21
56
84
7
69
25
81
23
67
61
59
37
63
73
31
75
33
9
40
46
76
3
53
32
77
28
41
12
52
72
90
64
16
55
42
47
68
49
51
54
66
30
29
35
74
70
58
65
71

> <PUBCHEM_MMFF94_PARTIAL_CHARGES>
7
1 -0.23
10 0.23
11 0.66
2 -0.65
26 0.5
3 -0.57
9 0.06

> <PUBCHEM_EFFECTIVE_ROTOR_COUNT>
7

> <PUBCHEM_PHARMACOPHORE_FEATURES>
6
1 1 hydrophobe
1 2 acceptor
1 3 acceptor
3 2 3 11 anion
3 4 6 8 hydrophobe
3 5 7 9 hydrophobe

> <PUBCHEM_HEAVY_ATOM_COUNT>
11

> <PUBCHEM_ATOM_DEF_STEREO_COUNT>
0

> <PUBCHEM_ATOM_UDEF_STEREO_COUNT>
0

> <PUBCHEM_BOND_DEF_STEREO_COUNT>
0

> <PUBCHEM_BOND_UDEF_STEREO_COUNT>
0

> <PUBCHEM_ISOTOPIC_ATOM_COUNT>
0

> <PUBCHEM_COMPONENT_COUNT>
1

> <PUBCHEM_CACTVS_TAUTO_COUNT>
1

> <PUBCHEM_CONFORMER_ID>
00085DB300000001

> <PUBCHEM_MMFF94_ENERGY>
2.6908

> <PUBCHEM_FEATURE_SELFOVERLAP>
30.504

> <PUBCHEM_SHAPE_FINGERPRINT>
11287383 113 18342457075801384080
14123238 8 18131351916735896412
1420 363 18201723951027366198
14251718 22 18261112993559516786
17834072 33 18335703875325607156
17834076 25 16153428341642322176
187816 3 15791732996864827112
20645477 70 18340207376448791926
20719005 15 18410855460713717732
20767249 13 18407760339686805344
20767249 213 10375865282226000970
20828058 44 18342458162000893967
22485316 2 18409446981575319411
23402539 116 18409443695851387789
42788 4 18410575089221920228
57483677 66 18408882928295558858
8209 1 18408604756185277812

> <PUBCHEM_SHAPE_MULTIPOLES>
220.58
14.72
0.97
0.61
7
0.15
0
2.25
-0.2
-0.29
0
0.17
0
0

> <PUBCHEM_SHAPE_SELFOVERLAP>
387.096

> <PUBCHEM_SHAPE_VOLUME>
145.9

> <PUBCHEM_COORDINATE_TYPE>
2
5
10

$$$$
