548370
  -OEChem-11232109203D

 30 29  0     0  0  0  0  0  0999 V2000
    4.9285    1.0256   -0.0144 S   0  0  0  0  0  0  0  0  0  0  0  0
   -0.1256    0.3259    0.0226 O   0  0  0  0  0  0  0  0  0  0  0  0
    1.1404   -1.6030    0.0018 O   0  0  0  0  0  0  0  0  0  0  0  0
   -3.8347   -0.2733    0.0199 C   0  0  0  0  0  0  0  0  0  0  0  0
   -2.5142    0.4935    0.0353 C   0  0  0  0  0  0  0  0  0  0  0  0
   -5.0302    0.6785   -0.0097 C   0  0  0  0  0  0  0  0  0  0  0  0
   -1.3177   -0.4472    0.0223 C   0  0  0  0  0  0  0  0  0  0  0  0
   -6.3462   -0.0814   -0.0594 C   0  0  0  0  0  0  0  0  0  0  0  0
    2.2133    0.5809    0.0133 C   0  0  0  0  0  0  0  0  0  0  0  0
    1.0477   -0.3831    0.0117 C   0  0  0  0  0  0  0  0  0  0  0  0
    3.5486   -0.1532   -0.0262 C   0  0  0  0  0  0  0  0  0  0  0  0
    6.2901   -0.1632   -0.0172 C   0  0  0  0  0  0  0  0  0  0  0  0
   -3.8675   -0.9289   -0.8589 H   0  0  0  0  0  0  0  0  0  0  0  0
   -3.8976   -0.9172    0.9055 H   0  0  0  0  0  0  0  0  0  0  0  0
   -2.4549    1.1650   -0.8306 H   0  0  0  0  0  0  0  0  0  0  0  0
   -2.4604    1.1401    0.9201 H   0  0  0  0  0  0  0  0  0  0  0  0
   -5.0171    1.3202    0.8789 H   0  0  0  0  0  0  0  0  0  0  0  0
   -4.9627    1.3349   -0.8852 H   0  0  0  0  0  0  0  0  0  0  0  0
   -1.3440   -1.0754   -0.8758 H   0  0  0  0  0  0  0  0  0  0  0  0
   -1.3366   -1.0900    0.9103 H   0  0  0  0  0  0  0  0  0  0  0  0
   -6.4046   -0.7071   -0.9556 H   0  0  0  0  0  0  0  0  0  0  0  0
   -6.4602   -0.7258    0.8182 H   0  0  0  0  0  0  0  0  0  0  0  0
   -7.1874    0.6184   -0.0785 H   0  0  0  0  0  0  0  0  0  0  0  0
    2.1409    1.1893    0.9225 H   0  0  0  0  0  0  0  0  0  0  0  0
    2.1121    1.2293   -0.8651 H   0  0  0  0  0  0  0  0  0  0  0  0
    3.6385   -0.8154    0.8419 H   0  0  0  0  0  0  0  0  0  0  0  0
    3.6137   -0.7694   -0.9296 H   0  0  0  0  0  0  0  0  0  0  0  0
    6.2472   -0.7944    0.8741 H   0  0  0  0  0  0  0  0  0  0  0  0
    7.2402    0.3774   -0.0140 H   0  0  0  0  0  0  0  0  0  0  0  0
    6.2492   -0.7877   -0.9135 H   0  0  0  0  0  0  0  0  0  0  0  0
  1 11  1  0  0  0  0
  1 12  1  0  0  0  0
  2  7  1  0  0  0  0
  2 10  1  0  0  0  0
  3 10  2  0  0  0  0
  4  5  1  0  0  0  0
  4  6  1  0  0  0  0
  4 13  1  0  0  0  0
  4 14  1  0  0  0  0
  5  7  1  0  0  0  0
  5 15  1  0  0  0  0
  5 16  1  0  0  0  0
  6  8  1  0  0  0  0
  6 17  1  0  0  0  0
  6 18  1  0  0  0  0
  7 19  1  0  0  0  0
  7 20  1  0  0  0  0
  8 21  1  0  0  0  0
  8 22  1  0  0  0  0
  8 23  1  0  0  0  0
  9 10  1  0  0  0  0
  9 11  1  0  0  0  0
  9 24  1  0  0  0  0
  9 25  1  0  0  0  0
 11 26  1  0  0  0  0
 11 27  1  0  0  0  0
 12 28  1  0  0  0  0
 12 29  1  0  0  0  0
 12 30  1  0  0  0  0
M  END
> <PUBCHEM_COMPOUND_CID>
548370

> <PUBCHEM_CONFORMER_RMSD>
1

> <PUBCHEM_CONFORMER_DIVERSEORDER>
1
26
209
387
282
138
320
2
489
40
5
313
135
185
443
472
490
126
16
31
93
242
227
4
149
331
42
21
368
495
56
14
188
225
404
328
119
161
11
233
25
280
142
446
332
99
260
82
412
285
10
394
141
333
400
399
310
49
18
55
442
410
321
461
440
9
448
17
291
127
38
483
356
511
144
62
306
30
39
115
129
193
51
34
388
246
102

> <PUBCHEM_MMFF94_PARTIAL_CHARGES>
8
1 -0.46
10 0.66
11 0.23
12 0.23
2 -0.43
3 -0.57
7 0.28
9 0.06

> <PUBCHEM_EFFECTIVE_ROTOR_COUNT>
8

> <PUBCHEM_PHARMACOPHORE_FEATURES>
3
1 12 hydrophobe
1 3 acceptor
1 8 hydrophobe

> <PUBCHEM_HEAVY_ATOM_COUNT>
12

> <PUBCHEM_ATOM_DEF_STEREO_COUNT>
0

> <PUBCHEM_ATOM_UDEF_STEREO_COUNT>
0

> <PUBCHEM_BOND_DEF_STEREO_COUNT>
0

> <PUBCHEM_BOND_UDEF_STEREO_COUNT>
0

> <PUBCHEM_ISOTOPIC_ATOM_COUNT>
0

> <PUBCHEM_COMPONENT_COUNT>
1

> <PUBCHEM_CACTVS_TAUTO_COUNT>
1

> <PUBCHEM_CONFORMER_ID>
00085E1200000001

> <PUBCHEM_MMFF94_ENERGY>
7.2512

> <PUBCHEM_FEATURE_SELFOVERLAP>
15.223

> <PUBCHEM_SHAPE_FINGERPRINT>
12091667 2 18202283607073109313
12714333 28 17346880057026227328
12815109 37 9295289443249976012
13533116 47 16733253570105730136
14123238 8 18114180835287086069
1420 363 18335145297342924995
14251718 22 17917992793715393975
14251764 46 18410009940002494361
17834072 33 17775563160943433373
17834072 8 18342183267573295166
17834076 25 18410292514722960841
187816 3 15554449604124053231
20279233 1 17676497129290453155
20281389 69 18259982678120904012
20605781 2 18411981381773740944
20645477 70 18271528576504105182
20767249 213 18260830418528054333
23402539 116 18272928349410945943
23402655 69 18273211967940418389
23521765 1 18341894095129063845
3545911 37 18410575089237712003
366044 4 18410575097664434722
42630746 31 18272653416281856974
42788 4 18410856563998229281
8209 1 18412545414454488292

> <PUBCHEM_SHAPE_MULTIPOLES>
239.07
15.78
1.01
0.61
3.08
0.12
0
-2.27
-0.28
-0.46
0
-0.03
-0.02
0

> <PUBCHEM_SHAPE_SELFOVERLAP>
421.211

> <PUBCHEM_SHAPE_VOLUME>
157.8

> <PUBCHEM_COORDINATE_TYPE>
2
5
10

$$$$
