5486616
  -OEChem-11232109153D

 29 29  0     1  0  0  0  0  0999 V2000
    0.2594   -2.6242    0.0929 O   0  0  0  0  0  0  0  0  0  0  0  0
    0.5873   -1.2596    1.8890 O   0  0  0  0  0  0  0  0  0  0  0  0
   -2.3118   -0.6462   -1.6938 O   0  0  0  0  0  0  0  0  0  0  0  0
   -0.3292    0.7999   -0.1870 C   0  0  2  0  0  0  0  0  0  0  0  0
    0.6773   -0.3535   -0.3528 C   0  0  1  0  0  0  0  0  0  0  0  0
    2.0737    0.2930   -0.2003 C   0  0  2  0  0  0  0  0  0  0  0  0
    0.4234    1.8308    0.6504 C   0  0  0  0  0  0  0  0  0  0  0  0
    1.8185    1.7850    0.0477 C   0  0  0  0  0  0  0  0  0  0  0  0
   -1.6873    0.4361    0.3939 C   0  0  1  0  0  0  0  0  0  0  0  0
    2.9628    0.0595   -1.4157 C   0  0  0  0  0  0  0  0  0  0  0  0
    0.5091   -1.4289    0.6813 C   0  0  0  0  0  0  0  0  0  0  0  0
   -2.5594    1.6748    0.5692 C   0  0  0  0  0  0  0  0  0  0  0  0
   -2.4239   -0.5668   -0.4747 C   0  0  0  0  0  0  0  0  0  0  0  0
   -0.4802    1.2387   -1.1857 H   0  0  0  0  0  0  0  0  0  0  0  0
    0.5543   -0.7997   -1.3478 H   0  0  0  0  0  0  0  0  0  0  0  0
    2.5979   -0.1169    0.6731 H   0  0  0  0  0  0  0  0  0  0  0  0
    0.4519    1.5475    1.7090 H   0  0  0  0  0  0  0  0  0  0  0  0
   -0.0011    2.8362    0.5724 H   0  0  0  0  0  0  0  0  0  0  0  0
    1.8373    2.3508   -0.8920 H   0  0  0  0  0  0  0  0  0  0  0  0
    2.5668    2.2227    0.7157 H   0  0  0  0  0  0  0  0  0  0  0  0
   -1.5771   -0.0283    1.3800 H   0  0  0  0  0  0  0  0  0  0  0  0
    3.1429   -1.0107   -1.5614 H   0  0  0  0  0  0  0  0  0  0  0  0
    2.5034    0.4527   -2.3289 H   0  0  0  0  0  0  0  0  0  0  0  0
    3.9322    0.5516   -1.2856 H   0  0  0  0  0  0  0  0  0  0  0  0
   -2.6421    2.2408   -0.3655 H   0  0  0  0  0  0  0  0  0  0  0  0
   -2.1672    2.3405    1.3440 H   0  0  0  0  0  0  0  0  0  0  0  0
   -3.5761    1.3937    0.8671 H   0  0  0  0  0  0  0  0  0  0  0  0
   -3.1461   -1.2075    0.0611 H   0  0  0  0  0  0  0  0  0  0  0  0
    0.1460   -3.3407    0.7531 H   0  0  0  0  0  0  0  0  0  0  0  0
  1 11  1  0  0  0  0
  1 29  1  0  0  0  0
  2 11  2  0  0  0  0
  3 13  2  0  0  0  0
  4  5  1  0  0  0  0
  4  7  1  0  0  0  0
  4  9  1  0  0  0  0
  4 14  1  0  0  0  0
  5  6  1  0  0  0  0
  5 11  1  0  0  0  0
  5 15  1  0  0  0  0
  6  8  1  0  0  0  0
  6 10  1  0  0  0  0
  6 16  1  0  0  0  0
  7  8  1  0  0  0  0
  7 17  1  0  0  0  0
  7 18  1  0  0  0  0
  8 19  1  0  0  0  0
  8 20  1  0  0  0  0
  9 12  1  0  0  0  0
  9 13  1  0  0  0  0
  9 21  1  0  0  0  0
 10 22  1  0  0  0  0
 10 23  1  0  0  0  0
 10 24  1  0  0  0  0
 12 25  1  0  0  0  0
 12 26  1  0  0  0  0
 12 27  1  0  0  0  0
 13 28  1  0  0  0  0
M  END
> <PUBCHEM_COMPOUND_CID>
5486616

> <PUBCHEM_CONFORMER_RMSD>
0.6

> <PUBCHEM_CONFORMER_DIVERSEORDER>
1
7
2
4
3
6
5

> <PUBCHEM_MMFF94_PARTIAL_CHARGES>
9
1 -0.65
11 0.66
13 0.45
2 -0.57
28 0.06
29 0.5
3 -0.57
5 0.06
9 0.06

> <PUBCHEM_EFFECTIVE_ROTOR_COUNT>
4

> <PUBCHEM_PHARMACOPHORE_FEATURES>
6
1 1 acceptor
1 12 hydrophobe
1 2 acceptor
1 3 acceptor
3 1 2 11 anion
5 4 5 6 7 8 rings

> <PUBCHEM_HEAVY_ATOM_COUNT>
13

> <PUBCHEM_ATOM_DEF_STEREO_COUNT>
4

> <PUBCHEM_ATOM_UDEF_STEREO_COUNT>
0

> <PUBCHEM_BOND_DEF_STEREO_COUNT>
0

> <PUBCHEM_BOND_UDEF_STEREO_COUNT>
0

> <PUBCHEM_ISOTOPIC_ATOM_COUNT>
0

> <PUBCHEM_COMPONENT_COUNT>
1

> <PUBCHEM_CACTVS_TAUTO_COUNT>
2

> <PUBCHEM_CONFORMER_ID>
0053B81800000001

> <PUBCHEM_MMFF94_ENERGY>
26.8231

> <PUBCHEM_FEATURE_SELFOVERLAP>
30.502

> <PUBCHEM_SHAPE_FINGERPRINT>
10353120 184 18341055215196942077
12138202 97 17902505227271174324
12326174 3 17751073613603487082
12423570 1 14017701981994845171
14128692 85 17131559430715208300
14251711 518 18270116803858467749
15775835 57 18335994077106365477
16945 1 18197218263681990336
18185500 45 18195802968878554977
19873495 37 18269296598217113685
22112679 90 18198329667921085403
22802520 49 17984996043989712814
23388829 49 18046332038484657338
23419403 2 16190294163452704939
23552423 10 18412824685717610117
23559900 14 18342192038244732036
2748010 2 16829808617653907936
4369600 1 18412265012913704976
5084963 1 17676770988646530503
528862 383 17971201330716021713
528886 8 17845661343429607956
81228 2 17320155529185943330

> <PUBCHEM_SHAPE_MULTIPOLES>
249.93
3.63
2.16
1.28
0.33
0.37
0
-0.82
-1.43
-0.01
0.57
-0.02
0.45
-0.46

> <PUBCHEM_SHAPE_SELFOVERLAP>
502.397

> <PUBCHEM_SHAPE_VOLUME>
147.9

> <PUBCHEM_COORDINATE_TYPE>
2
5
10

$$$$
