549715
  -OEChem-11232109253D

 36 35  0     1  0  0  0  0  0999 V2000
   -1.8634    0.7840    0.0133 O   0  0  0  0  0  0  0  0  0  0  0  0
   -3.0341   -0.8157   -1.1712 O   0  0  0  0  0  0  0  0  0  0  0  0
   -0.1056   -1.4892    0.5601 C   0  0  1  0  0  0  0  0  0  0  0  0
    1.2530   -2.2124    0.4328 C   0  0  0  0  0  0  0  0  0  0  0  0
   -0.6582   -1.0636   -0.8088 C   0  0  0  0  0  0  0  0  0  0  0  0
    2.3483   -1.4303   -0.3069 C   0  0  0  0  0  0  0  0  0  0  0  0
   -1.1029   -2.4132    1.2727 C   0  0  0  0  0  0  0  0  0  0  0  0
    2.7194   -0.1503    0.3889 C   0  0  0  0  0  0  0  0  0  0  0  0
   -1.9973   -0.3756   -0.6919 C   0  0  0  0  0  0  0  0  0  0  0  0
    2.7379    1.0991   -0.1130 C   0  0  0  0  0  0  0  0  0  0  0  0
    3.1436    2.2601    0.7565 C   0  0  0  0  0  0  0  0  0  0  0  0
    2.3732    1.4822   -1.5190 C   0  0  0  0  0  0  0  0  0  0  0  0
   -3.0654    1.5385    0.1953 C   0  0  0  0  0  0  0  0  0  0  0  0
   -2.7485    2.7864    0.9913 C   0  0  0  0  0  0  0  0  0  0  0  0
    0.0279   -0.6008    1.1900 H   0  0  0  0  0  0  0  0  0  0  0  0
    1.6146   -2.4716    1.4369 H   0  0  0  0  0  0  0  0  0  0  0  0
    1.1058   -3.1650   -0.0932 H   0  0  0  0  0  0  0  0  0  0  0  0
    0.0106   -0.3715   -1.3282 H   0  0  0  0  0  0  0  0  0  0  0  0
   -0.7805   -1.9371   -1.4606 H   0  0  0  0  0  0  0  0  0  0  0  0
    2.0621   -1.2823   -1.3500 H   0  0  0  0  0  0  0  0  0  0  0  0
    3.2482   -2.0581   -0.3362 H   0  0  0  0  0  0  0  0  0  0  0  0
   -1.3305   -3.2965    0.6661 H   0  0  0  0  0  0  0  0  0  0  0  0
   -0.6939   -2.7577    2.2289 H   0  0  0  0  0  0  0  0  0  0  0  0
   -2.0434   -1.8981    1.4921 H   0  0  0  0  0  0  0  0  0  0  0  0
    3.0199   -0.2831    1.4279 H   0  0  0  0  0  0  0  0  0  0  0  0
    4.0228    2.7595    0.3365 H   0  0  0  0  0  0  0  0  0  0  0  0
    3.3934    1.9514    1.7771 H   0  0  0  0  0  0  0  0  0  0  0  0
    2.3276    2.9875    0.8210 H   0  0  0  0  0  0  0  0  0  0  0  0
    3.1938    2.0422   -1.9802 H   0  0  0  0  0  0  0  0  0  0  0  0
    1.4823    2.1191   -1.5149 H   0  0  0  0  0  0  0  0  0  0  0  0
    2.1676    0.6291   -2.1678 H   0  0  0  0  0  0  0  0  0  0  0  0
   -3.4736    1.8166   -0.7827 H   0  0  0  0  0  0  0  0  0  0  0  0
   -3.7992    0.9306    0.7362 H   0  0  0  0  0  0  0  0  0  0  0  0
   -3.6476    3.3885    1.1495 H   0  0  0  0  0  0  0  0  0  0  0  0
   -2.3224    2.5241    1.9653 H   0  0  0  0  0  0  0  0  0  0  0  0
   -2.0015    3.3955    0.4716 H   0  0  0  0  0  0  0  0  0  0  0  0
  1  9  1  0  0  0  0
  1 13  1  0  0  0  0
  2  9  2  0  0  0  0
  3  4  1  0  0  0  0
  3  5  1  0  0  0  0
  3  7  1  0  0  0  0
  3 15  1  0  0  0  0
  4  6  1  0  0  0  0
  4 16  1  0  0  0  0
  4 17  1  0  0  0  0
  5  9  1  0  0  0  0
  5 18  1  0  0  0  0
  5 19  1  0  0  0  0
  6  8  1  0  0  0  0
  6 20  1  0  0  0  0
  6 21  1  0  0  0  0
  7 22  1  0  0  0  0
  7 23  1  0  0  0  0
  7 24  1  0  0  0  0
  8 10  2  0  0  0  0
  8 25  1  0  0  0  0
 10 11  1  0  0  0  0
 10 12  1  0  0  0  0
 11 26  1  0  0  0  0
 11 27  1  0  0  0  0
 11 28  1  0  0  0  0
 12 29  1  0  0  0  0
 12 30  1  0  0  0  0
 12 31  1  0  0  0  0
 13 14  1  0  0  0  0
 13 32  1  0  0  0  0
 13 33  1  0  0  0  0
 14 34  1  0  0  0  0
 14 35  1  0  0  0  0
 14 36  1  0  0  0  0
M  END
> <PUBCHEM_COMPOUND_CID>
549715

> <PUBCHEM_CONFORMER_RMSD>
0.8

> <PUBCHEM_CONFORMER_DIVERSEORDER>
1
56
226
190
122
322
116
330
61
55
158
41
236
216
241
212
185
52
165
253
167
261
162
317
259
6
90
163
97
160
235
31
187
326
283
304
237
298
227
232
313
25
21
272
281
293
171
62
219
117
60
291
175
159
139
213
153
268
305
144
127
335
230
17
140
123
247
186
309
53
238
336
26
145
65
333
202
182
279
125
71
337
277
338
110
86
12
307
197
311
35
208
143
196
285
286
250
269
327
42
324
195
141
111
58
32
3
104
148
300
68
297
264
299
96
199
270
229
4
92
308
128
320
36
288
223
282
210
209
18
243
257
217
262
315
228
70
81
294
275
278
20
23
295
94
184
265
164
189
260
280
27
188
45
89
179
194
47
292
239
91
258
121
207
15
79
296
137
136
248
221
14
51
201
168
166
273
157
76
312
150
334
40
302
115
191
118
274
205
155
10
57
310
102
271
54
100
325
332
130
7
113
176
318
73
154
218
206
78
24
224
8
329
198
138
314
59
193
109
38
105
204
108
319
211
284
67
220
180
328
87
192
129
244
120
266
13
98
39
149
16
135
49
74
34
215
246
287
50
114
48
124
234
276
183
80
75
303
301
101
240
254
103
251
119
152
82
181
231
93
69
83
331
255
33
29
225
289
132
267
2
323
161
22
249
63
178
256
85
30
112
88
37
43
9
19
44
203
242
306
172
77
5
142
316
147
290
174
84
252
263
66
107
126
106
222
177
200
245
95
146
170
11
214
64
233
28
133
46
321
173
131
134
72
169
151
99
156

> <PUBCHEM_MMFF94_PARTIAL_CHARGES>
11
1 -0.43
10 -0.28
11 0.14
12 0.14
13 0.28
2 -0.57
25 0.15
5 0.06
6 0.14
8 -0.29
9 0.66

> <PUBCHEM_EFFECTIVE_ROTOR_COUNT>
7

> <PUBCHEM_PHARMACOPHORE_FEATURES>
4
1 2 acceptor
1 7 hydrophobe
3 10 11 12 hydrophobe
5 3 4 5 6 8 hydrophobe

> <PUBCHEM_HEAVY_ATOM_COUNT>
14

> <PUBCHEM_ATOM_DEF_STEREO_COUNT>
0

> <PUBCHEM_ATOM_UDEF_STEREO_COUNT>
1

> <PUBCHEM_BOND_DEF_STEREO_COUNT>
0

> <PUBCHEM_BOND_UDEF_STEREO_COUNT>
0

> <PUBCHEM_ISOTOPIC_ATOM_COUNT>
0

> <PUBCHEM_COMPONENT_COUNT>
1

> <PUBCHEM_CACTVS_TAUTO_COUNT>
1

> <PUBCHEM_CONFORMER_ID>
0008635300000001

> <PUBCHEM_MMFF94_ENERGY>
11.698

> <PUBCHEM_FEATURE_SELFOVERLAP>
20.302

> <PUBCHEM_SHAPE_FINGERPRINT>
10382601 240 18041562413088767632
12162725 195 18412254039071959622
13618510 140 18261956366069823668
13764800 53 18116718615013041402
14123250 116 18272091608304361785
14251711 518 17833260926774272353
14787075 74 18044933717661565851
15775835 57 18341616975360318436
17041 49 18121771730131583026
17357990 137 18053654785530149443
18186145 218 18261388906137179383
18219364 16 17823693058272956781
18981168 100 18191330301695431514
20304884 271 18411704283247340274
20510252 161 17756150342546829610
20539926 19 18270408169849676472
20653085 51 18272376317264819443
20671657 1 18268151963578464806
21041028 32 16748744322630342595
21524375 3 18337671919102463279
21665062 11 17402903219646014257
22094290 62 18196091036498215664
22959321 54 18338791329176396111
23557571 272 18048603917144110378
23598291 2 17981029835039757999
474 4 18260267417304024973
526903 126 18270674402151010145
58999712 98 18269276750936095752
7832392 63 18055630616514846590
81228 2 17387432313580967627

> <PUBCHEM_SHAPE_MULTIPOLES>
276.37
5.74
3.27
1.23
0.39
0.62
0.16
4.02
0.05
0.41
-1.21
0.1
0.07
-0.6

> <PUBCHEM_SHAPE_SELFOVERLAP>
514.493

> <PUBCHEM_SHAPE_VOLUME>
174.4

> <PUBCHEM_COORDINATE_TYPE>
2
5
10

$$$$
