550851
  -OEChem-11232108483D

 41 40  0     1  0  0  0  0  0999 V2000
    0.9537   -0.4294   -0.0197 O   0  0  0  0  0  0  0  0  0  0  0  0
   -0.2964   -1.1039   -1.8353 O   0  0  0  0  0  0  0  0  0  0  0  0
   -1.2202   -1.3050    0.3915 C   0  0  1  0  0  0  0  0  0  0  0  0
   -2.5046   -0.4863    0.1680 C   0  0  0  0  0  0  0  0  0  0  0  0
   -2.2733    1.0232    0.3009 C   0  0  0  0  0  0  0  0  0  0  0  0
   -1.5259   -2.8122    0.3604 C   0  0  0  0  0  0  0  0  0  0  0  0
    3.2083    0.5063   -0.0971 C   0  0  1  0  0  0  0  0  0  0  0  0
   -0.1524   -0.9427   -0.6292 C   0  0  0  0  0  0  0  0  0  0  0  0
    2.0232   -0.0556   -0.8938 C   0  0  0  0  0  0  0  0  0  0  0  0
   -3.5721    1.8030    0.0936 C   0  0  0  0  0  0  0  0  0  0  0  0
    2.8626    1.7882    0.6850 C   0  0  0  0  0  0  0  0  0  0  0  0
   -0.2931   -3.6696    0.6166 C   0  0  0  0  0  0  0  0  0  0  0  0
    3.7453   -0.5499    0.8754 C   0  0  0  0  0  0  0  0  0  0  0  0
   -3.3417    3.3031    0.1841 C   0  0  0  0  0  0  0  0  0  0  0  0
    2.3866    2.9308   -0.2005 C   0  0  0  0  0  0  0  0  0  0  0  0
   -0.8340   -1.0615    1.3908 H   0  0  0  0  0  0  0  0  0  0  0  0
   -3.2636   -0.7978    0.8965 H   0  0  0  0  0  0  0  0  0  0  0  0
   -2.9112   -0.7009   -0.8286 H   0  0  0  0  0  0  0  0  0  0  0  0
   -1.8640    1.2465    1.2937 H   0  0  0  0  0  0  0  0  0  0  0  0
   -1.5339    1.3576   -0.4362 H   0  0  0  0  0  0  0  0  0  0  0  0
   -1.9509   -3.0908   -0.6118 H   0  0  0  0  0  0  0  0  0  0  0  0
   -2.2817   -3.0467    1.1196 H   0  0  0  0  0  0  0  0  0  0  0  0
    4.0079    0.7442   -0.8105 H   0  0  0  0  0  0  0  0  0  0  0  0
    2.3507   -0.9449   -1.4472 H   0  0  0  0  0  0  0  0  0  0  0  0
    1.6628    0.6786   -1.6227 H   0  0  0  0  0  0  0  0  0  0  0  0
   -4.3098    1.5048    0.8476 H   0  0  0  0  0  0  0  0  0  0  0  0
   -3.9970    1.5648   -0.8886 H   0  0  0  0  0  0  0  0  0  0  0  0
    3.7543    2.1244    1.2290 H   0  0  0  0  0  0  0  0  0  0  0  0
    2.0954    1.5790    1.4406 H   0  0  0  0  0  0  0  0  0  0  0  0
    0.1750   -3.4076    1.5708 H   0  0  0  0  0  0  0  0  0  0  0  0
   -0.5740   -4.7269    0.6569 H   0  0  0  0  0  0  0  0  0  0  0  0
    0.4514   -3.5547   -0.1770 H   0  0  0  0  0  0  0  0  0  0  0  0
    4.0153   -1.4675    0.3421 H   0  0  0  0  0  0  0  0  0  0  0  0
    4.6442   -0.1851    1.3840 H   0  0  0  0  0  0  0  0  0  0  0  0
    3.0070   -0.8072    1.6424 H   0  0  0  0  0  0  0  0  0  0  0  0
   -2.6339    3.6384   -0.5808 H   0  0  0  0  0  0  0  0  0  0  0  0
   -2.9439    3.5801    1.1655 H   0  0  0  0  0  0  0  0  0  0  0  0
   -4.2831    3.8409    0.0346 H   0  0  0  0  0  0  0  0  0  0  0  0
    3.1007    3.1299   -1.0056 H   0  0  0  0  0  0  0  0  0  0  0  0
    1.4100    2.7160   -0.6442 H   0  0  0  0  0  0  0  0  0  0  0  0
    2.2821    3.8450    0.3930 H   0  0  0  0  0  0  0  0  0  0  0  0
  1  8  1  0  0  0  0
  1  9  1  0  0  0  0
  2  8  2  0  0  0  0
  3  4  1  0  0  0  0
  3  6  1  0  0  0  0
  3  8  1  0  0  0  0
  3 16  1  0  0  0  0
  4  5  1  0  0  0  0
  4 17  1  0  0  0  0
  4 18  1  0  0  0  0
  5 10  1  0  0  0  0
  5 19  1  0  0  0  0
  5 20  1  0  0  0  0
  6 12  1  0  0  0  0
  6 21  1  0  0  0  0
  6 22  1  0  0  0  0
  7  9  1  0  0  0  0
  7 11  1  0  0  0  0
  7 13  1  0  0  0  0
  7 23  1  0  0  0  0
  9 24  1  0  0  0  0
  9 25  1  0  0  0  0
 10 14  1  0  0  0  0
 10 26  1  0  0  0  0
 10 27  1  0  0  0  0
 11 15  1  0  0  0  0
 11 28  1  0  0  0  0
 11 29  1  0  0  0  0
 12 30  1  0  0  0  0
 12 31  1  0  0  0  0
 12 32  1  0  0  0  0
 13 33  1  0  0  0  0
 13 34  1  0  0  0  0
 13 35  1  0  0  0  0
 14 36  1  0  0  0  0
 14 37  1  0  0  0  0
 14 38  1  0  0  0  0
 15 39  1  0  0  0  0
 15 40  1  0  0  0  0
 15 41  1  0  0  0  0
M  END
> <PUBCHEM_COMPOUND_CID>
550851

> <PUBCHEM_CONFORMER_RMSD>
1

> <PUBCHEM_CONFORMER_DIVERSEORDER>
1
218
194
103
288
243
81
126
200
297
65
36
299
269
287
271
114
157
176
301
185
141
95
85
305
281
15
186
33
180
147
158
308
89
277
289
244
207
117
66
40
41
45
250
251
296
75
134
217
192
129
53
152
237
39
16
60
273
156
215
199
230
28
133
189
153
74
63
266
12
184
260
236
20
212
5
306
256
138
119
64
160
99
109
140
169
257
275
196
231
110
310
51
11
206
22
178
238
4
307
248
59
26
71
298
220
270
164
61
87
221
290
283
6
170
21
78
246
193
255
171
276
265
139
94
163
183
240
25
172
84
148
167
262
102
209
223
120
144
197
154
303
76
168
48
282
118
115
242
165
179
111
174
268
295
100
2
77
70
286
104
3
137
188
216
46
225
38
249
293
226
131
86
24
108
181
54
247
239
72
302
13
23
52
161
309
49
229
274
57
285
235
125
9
79
291
191
258
42
10
90
259
182
30
7
101
214
187
69
124
245
136
146
97
8
31
150
128
17
92
222
202
98
278
211
195
177
112
123
190
227
107
29
62
267
83
263
228
149
27
210
232
67
106
55
18
93
204
47
50
80
14
279
253
203
34
254
143
82
294
88
19
145
142
32
292
116
132
198
44
105
151
68
261
121
162
219
233
58
300
159
37
234
43
73
155
135
35
224
130
175
264
96
272
91
127
252
213
113
304
284
280
208
205
173
241
201
122
166
56

> <PUBCHEM_MMFF94_PARTIAL_CHARGES>
5
1 -0.43
2 -0.57
3 0.06
8 0.66
9 0.28

> <PUBCHEM_EFFECTIVE_ROTOR_COUNT>
9

> <PUBCHEM_PHARMACOPHORE_FEATURES>
6
1 12 hydrophobe
1 13 hydrophobe
1 14 hydrophobe
1 15 hydrophobe
1 2 acceptor
5 3 4 5 6 10 hydrophobe

> <PUBCHEM_HEAVY_ATOM_COUNT>
15

> <PUBCHEM_ATOM_DEF_STEREO_COUNT>
0

> <PUBCHEM_ATOM_UDEF_STEREO_COUNT>
2

> <PUBCHEM_BOND_DEF_STEREO_COUNT>
0

> <PUBCHEM_BOND_UDEF_STEREO_COUNT>
0

> <PUBCHEM_ISOTOPIC_ATOM_COUNT>
0

> <PUBCHEM_COMPONENT_COUNT>
1

> <PUBCHEM_CACTVS_TAUTO_COUNT>
1

> <PUBCHEM_CONFORMER_ID>
000867C300000001

> <PUBCHEM_MMFF94_ENERGY>
8.9559

> <PUBCHEM_FEATURE_SELFOVERLAP>
30.45

> <PUBCHEM_SHAPE_FINGERPRINT>
12173636 292 18337949111843980878
122479 349 18342457045145983613
12500047 106 18409451397139348778
13294875 104 18122913014336908230
14178342 30 18191289671737484386
18186145 218 17988095369726219921
20510252 161 18268154325984824083
20621476 13 17399227552401797405
20671657 1 17907018374874509743
212916 134 18269252604883023034
21524375 3 18271804584345624197
21650355 55 17832706047064978587
21731228 192 18409735023699346771
22959321 28 17766567124366729804
23382010 3 14907312205959212879
23402539 116 18270113656085712271
305870 269 18264209097812427027
474 4 18268430123178604889
6333272 397 18410576150363835009
7097593 13 18261099795220137554
7364860 26 17833270814147917755
81228 2 18119546567773691099
84936 182 18052257293730243729
90316 7 17977119160190338115

> <PUBCHEM_SHAPE_MULTIPOLES>
296.95
6.31
4.26
1
1.31
0.46
0.3
-5.47
-1.21
-2.59
-0.78
0.3
0.27
-0.07

> <PUBCHEM_SHAPE_SELFOVERLAP>
547.439

> <PUBCHEM_SHAPE_VOLUME>
188.9

> <PUBCHEM_COORDINATE_TYPE>
2
5
10

$$$$
