551084
  -OEChem-11232108463D

 25 25  0     0  0  0  0  0  0999 V2000
    2.6918    0.2254    0.2516 O   0  0  0  0  0  0  0  0  0  0  0  0
    1.1078    2.3887   -0.0573 O   0  0  0  0  0  0  0  0  0  0  0  0
   -1.5735   -0.0586    0.0364 C   0  0  0  0  0  0  0  0  0  0  0  0
   -0.7457   -1.2966   -0.3617 C   0  0  0  0  0  0  0  0  0  0  0  0
   -0.9062    1.1969   -0.5375 C   0  0  0  0  0  0  0  0  0  0  0  0
   -1.6938    0.0470    1.5713 C   0  0  0  0  0  0  0  0  0  0  0  0
   -2.9929   -0.1902   -0.5446 C   0  0  0  0  0  0  0  0  0  0  0  0
    0.7444   -1.1598   -0.1249 C   0  0  0  0  0  0  0  0  0  0  0  0
    0.5573    1.2929   -0.1679 C   0  0  0  0  0  0  0  0  0  0  0  0
    1.3510    0.0391   -0.0044 C   0  0  0  0  0  0  0  0  0  0  0  0
    1.4597   -2.4849   -0.0610 C   0  0  0  0  0  0  0  0  0  0  0  0
   -0.8911   -1.5215   -1.4270 H   0  0  0  0  0  0  0  0  0  0  0  0
   -1.1237   -2.1658    0.1931 H   0  0  0  0  0  0  0  0  0  0  0  0
   -1.4134    2.0960   -0.1672 H   0  0  0  0  0  0  0  0  0  0  0  0
   -0.9646    1.2084   -1.6330 H   0  0  0  0  0  0  0  0  0  0  0  0
   -2.2868    0.9230    1.8585 H   0  0  0  0  0  0  0  0  0  0  0  0
   -2.1897   -0.8376    1.9870 H   0  0  0  0  0  0  0  0  0  0  0  0
   -0.7194    0.1359    2.0620 H   0  0  0  0  0  0  0  0  0  0  0  0
   -3.4944   -1.0869   -0.1636 H   0  0  0  0  0  0  0  0  0  0  0  0
   -3.6099    0.6764   -0.2814 H   0  0  0  0  0  0  0  0  0  0  0  0
   -2.9704   -0.2611   -1.6379 H   0  0  0  0  0  0  0  0  0  0  0  0
    1.1822   -3.0170    0.8548 H   0  0  0  0  0  0  0  0  0  0  0  0
    2.5483   -2.4028   -0.0874 H   0  0  0  0  0  0  0  0  0  0  0  0
    1.1743   -3.1050   -0.9182 H   0  0  0  0  0  0  0  0  0  0  0  0
    3.1096   -0.6282    0.4416 H   0  0  0  0  0  0  0  0  0  0  0  0
  1 10  1  0  0  0  0
  1 25  1  0  0  0  0
  2  9  2  0  0  0  0
  3  4  1  0  0  0  0
  3  5  1  0  0  0  0
  3  6  1  0  0  0  0
  3  7  1  0  0  0  0
  4  8  1  0  0  0  0
  4 12  1  0  0  0  0
  4 13  1  0  0  0  0
  5  9  1  0  0  0  0
  5 14  1  0  0  0  0
  5 15  1  0  0  0  0
  6 16  1  0  0  0  0
  6 17  1  0  0  0  0
  6 18  1  0  0  0  0
  7 19  1  0  0  0  0
  7 20  1  0  0  0  0
  7 21  1  0  0  0  0
  8 10  2  0  0  0  0
  8 11  1  0  0  0  0
  9 10  1  0  0  0  0
 11 22  1  0  0  0  0
 11 23  1  0  0  0  0
 11 24  1  0  0  0  0
M  END
> <PUBCHEM_COMPOUND_CID>
551084

> <PUBCHEM_CONFORMER_RMSD>
0.4

> <PUBCHEM_CONFORMER_DIVERSEORDER>
1
2

> <PUBCHEM_MMFF94_PARTIAL_CHARGES>
9
1 -0.53
10 0.09
11 0.14
2 -0.57
25 0.45
4 0.14
5 0.06
8 -0.28
9 0.49

> <PUBCHEM_EFFECTIVE_ROTOR_COUNT>
0.6

> <PUBCHEM_PHARMACOPHORE_FEATURES>
4
1 1 donor
1 2 acceptor
3 3 6 7 hydrophobe
6 3 4 5 8 9 10 rings

> <PUBCHEM_HEAVY_ATOM_COUNT>
11

> <PUBCHEM_ATOM_DEF_STEREO_COUNT>
0

> <PUBCHEM_ATOM_UDEF_STEREO_COUNT>
0

> <PUBCHEM_BOND_DEF_STEREO_COUNT>
0

> <PUBCHEM_BOND_UDEF_STEREO_COUNT>
0

> <PUBCHEM_ISOTOPIC_ATOM_COUNT>
0

> <PUBCHEM_COMPONENT_COUNT>
1

> <PUBCHEM_CACTVS_TAUTO_COUNT>
12

> <PUBCHEM_CONFORMER_ID>
000868AC00000001

> <PUBCHEM_MMFF94_ENERGY>
20.529

> <PUBCHEM_FEATURE_SELFOVERLAP>
20.297

> <PUBCHEM_SHAPE_FINGERPRINT>
12423570 1 18194370429892423163
14817 1 8610599320396612081
161256 15 18197502818382445478
16945 1 18410578400551924263
18185500 45 18343017809008459127
193761 8 17834391224907039164
20201158 50 18261106357560848327
21040471 1 17833549372414566596
21922407 69 16916781834325645363
23552423 10 18044662988138817222
241688 4 18050566235866146195
2748010 2 18122339086446669254
29004967 10 18261683596633002323
5084963 1 18129942402584063833
528886 8 18338503248772092823
63268167 104 18412826863144469475

> <PUBCHEM_SHAPE_MULTIPOLES>
214.64
3.14
2.16
0.91
0.7
0.14
-0.33
-0.55
-0.02
-1.28
0.22
0.51
-0.03
0.02

> <PUBCHEM_SHAPE_SELFOVERLAP>
432.994

> <PUBCHEM_SHAPE_VOLUME>
126.5

> <PUBCHEM_COORDINATE_TYPE>
2
5
10

$$$$
