551316
  -OEChem-11232108413D

 28 28  0     1  0  0  0  0  0999 V2000
   -2.1427   -1.0815    0.2485 O   0  0  0  0  0  0  0  0  0  0  0  0
    0.4182   -0.0110   -0.2771 O   0  0  0  0  0  0  0  0  0  0  0  0
    1.8300    1.5912    0.5964 O   0  0  0  0  0  0  0  0  0  0  0  0
   -1.9679    0.1399   -0.4894 C   0  0  1  0  0  0  0  0  0  0  0  0
   -3.2299    0.9546   -0.2640 C   0  0  0  0  0  0  0  0  0  0  0  0
   -4.2739   -0.1293   -0.1666 C   0  0  0  0  0  0  0  0  0  0  0  0
   -3.5314   -1.2120    0.5876 C   0  0  0  0  0  0  0  0  0  0  0  0
   -0.7044    0.8420   -0.0312 C   0  0  0  0  0  0  0  0  0  0  0  0
    2.7045   -0.5201   -0.2362 C   0  0  0  0  0  0  0  0  0  0  0  0
    1.6331    0.4956    0.0889 C   0  0  0  0  0  0  0  0  0  0  0  0
    4.0996   -0.0138    0.1220 C   0  0  0  0  0  0  0  0  0  0  0  0
    5.1648   -1.0556   -0.1790 C   0  0  0  0  0  0  0  0  0  0  0  0
   -1.8757   -0.1481   -1.5440 H   0  0  0  0  0  0  0  0  0  0  0  0
   -3.4215    1.6717   -1.0668 H   0  0  0  0  0  0  0  0  0  0  0  0
   -3.1806    1.5041    0.6840 H   0  0  0  0  0  0  0  0  0  0  0  0
   -5.1923    0.1870    0.3346 H   0  0  0  0  0  0  0  0  0  0  0  0
   -4.5356   -0.4846   -1.1704 H   0  0  0  0  0  0  0  0  0  0  0  0
   -3.6233   -1.0747    1.6702 H   0  0  0  0  0  0  0  0  0  0  0  0
   -3.8805   -2.2164    0.3323 H   0  0  0  0  0  0  0  0  0  0  0  0
   -0.7536    1.0423    1.0459 H   0  0  0  0  0  0  0  0  0  0  0  0
   -0.5748    1.7843   -0.5757 H   0  0  0  0  0  0  0  0  0  0  0  0
    2.4869   -1.4353    0.3258 H   0  0  0  0  0  0  0  0  0  0  0  0
    2.6557   -0.7390   -1.3088 H   0  0  0  0  0  0  0  0  0  0  0  0
    4.3195    0.9031   -0.4377 H   0  0  0  0  0  0  0  0  0  0  0  0
    4.1416    0.2475    1.1863 H   0  0  0  0  0  0  0  0  0  0  0  0
    6.1555   -0.6717    0.0840 H   0  0  0  0  0  0  0  0  0  0  0  0
    4.9918   -1.9711    0.3957 H   0  0  0  0  0  0  0  0  0  0  0  0
    5.1717   -1.3134   -1.2428 H   0  0  0  0  0  0  0  0  0  0  0  0
  1  4  1  0  0  0  0
  1  7  1  0  0  0  0
  2  8  1  0  0  0  0
  2 10  1  0  0  0  0
  3 10  2  0  0  0  0
  4  5  1  0  0  0  0
  4  8  1  0  0  0  0
  4 13  1  0  0  0  0
  5  6  1  0  0  0  0
  5 14  1  0  0  0  0
  5 15  1  0  0  0  0
  6  7  1  0  0  0  0
  6 16  1  0  0  0  0
  6 17  1  0  0  0  0
  7 18  1  0  0  0  0
  7 19  1  0  0  0  0
  8 20  1  0  0  0  0
  8 21  1  0  0  0  0
  9 10  1  0  0  0  0
  9 11  1  0  0  0  0
  9 22  1  0  0  0  0
  9 23  1  0  0  0  0
 11 12  1  0  0  0  0
 11 24  1  0  0  0  0
 11 25  1  0  0  0  0
 12 26  1  0  0  0  0
 12 27  1  0  0  0  0
 12 28  1  0  0  0  0
M  END
> <PUBCHEM_COMPOUND_CID>
551316

> <PUBCHEM_CONFORMER_RMSD>
0.6

> <PUBCHEM_CONFORMER_DIVERSEORDER>
1
281
247
167
356
217
180
130
266
172
2
354
174
150
355
233
254
221
124
181
55
304
303
125
127
53
311
287
260
243
347
66
135
171
109
139
353
309
339
42
98
54
222
265
350
232
327
131
126
330
216
210
95
340
165
344
146
313
346
239
19
48
348
134
249
129
235
46
255
184
123
236
187
61
209
115
36
297
160
75
151
250
122
94
159
293
198
337
257
334
29
258
50
192
328
51
278
22
268
68
244
161
195
141
343
21
290
318
153
349
72
201
30
128
67
59
358
52
274
34
190
306
18
325
283
7
79
326
28
202
49
33
193
352
137
302
47
351
175
267
108
271
65
99
154
220
270
179
276
331
227
310
23
212
17
100
314
104
81
240
226
335
285
45
144
111
80
321
57
106
322
132
225
312
116
84
197
41
118
204
101
234
112
211
251
76
164
245
13
238
11
4
231
119
191
140
320
39
237
176
329
25
6
213
163
317
264
275
315
31
259
248
142
286
117
324
113
279
246
83
277
292
300
121
97
332
357
60
186
229
261
58
289
252
170
273
345
263
214
37
27
269
196
341
253
305
219
82
206
182
295
136
5
338
207
44
96
199
35
74
316
89
133
86
43
107
138
308
242
56
155
105
70
69
162
333
284
90
103
14
298
177
323
203
272
205
336
10
241
9
62
296
40
307
188
71
64
178
149
114
38
228
301
280
200
143
78
158
230
173
282
102
208
93
342
156
147
8
20
3
299
291
87
185
223
120
294
145
157
288
152
194
169
73
262
63
168
256
92
91
189
32
183
16
218
26
77
319
148
110
24
224
15
215
166
12
88
85

> <PUBCHEM_MMFF94_PARTIAL_CHARGES>
8
1 -0.56
10 0.66
2 -0.43
3 -0.57
4 0.28
7 0.28
8 0.28
9 0.06

> <PUBCHEM_EFFECTIVE_ROTOR_COUNT>
6

> <PUBCHEM_PHARMACOPHORE_FEATURES>
4
1 1 acceptor
1 12 hydrophobe
1 3 acceptor
5 1 4 5 6 7 rings

> <PUBCHEM_HEAVY_ATOM_COUNT>
12

> <PUBCHEM_ATOM_DEF_STEREO_COUNT>
0

> <PUBCHEM_ATOM_UDEF_STEREO_COUNT>
1

> <PUBCHEM_BOND_DEF_STEREO_COUNT>
0

> <PUBCHEM_BOND_UDEF_STEREO_COUNT>
0

> <PUBCHEM_ISOTOPIC_ATOM_COUNT>
0

> <PUBCHEM_COMPONENT_COUNT>
1

> <PUBCHEM_CACTVS_TAUTO_COUNT>
1

> <PUBCHEM_CONFORMER_ID>
0008699400000001

> <PUBCHEM_MMFF94_ENERGY>
12.413

> <PUBCHEM_FEATURE_SELFOVERLAP>
20.297

> <PUBCHEM_SHAPE_FINGERPRINT>
10465860 250 18342172241875495792
10680689 15 17386009446681175253
11062470 55 10952050056688833604
12032990 46 18409731780745901896
124424 183 18343862208353449061
12932764 1 16443612580248411269
14252887 29 17561370543874731262
14993402 34 15647053780608633706
15242439 84 18334851710674542725
17834072 33 18186808010771270244
17834074 16 18408324376003585222
18186145 218 16226042344667628605
1986462 14 18259985968070568965
200 152 17704065201407911869
20201158 50 18413672400439638479
20279233 1 18202287991412007015
20432913 95 17489591143020766814
20645464 45 18272376373626525423
20645477 70 18201718436278945446
20767249 213 11743834759544913435
20828058 44 18409448072639391926
20871998 22 17845947212685162460
21119208 17 16805323292535065878
22485316 2 18260545615326118714
23402539 116 17846491518317738797
23402655 69 11746926603459005443
23559900 14 18335696186796408328
42 15 18342740714840205644
77779 3 18335140916349805924

> <PUBCHEM_SHAPE_MULTIPOLES>
229.35
10
1.26
0.69
6
0.03
0.01
-3.12
-0.19
-0.17
0.17
-0.08
0
0.56

> <PUBCHEM_SHAPE_SELFOVERLAP>
443.414

> <PUBCHEM_SHAPE_VOLUME>
140.8

> <PUBCHEM_COORDINATE_TYPE>
2
5
10

$$$$
