552003
  -OEChem-11232109043D

 26 25  0     1  0  0  0  0  0999 V2000
   -3.6269   -1.7377    0.0349 Br  0  0  0  0  0  0  0  0  0  0  0  0
   -2.2709    1.8760    0.7255 O   0  0  0  0  0  0  0  0  0  0  0  0
   -3.0848    0.9813   -1.1902 O   0  0  0  0  0  0  0  0  0  0  0  0
    1.7133   -0.7258   -0.1301 C   0  0  0  0  0  0  0  0  0  0  0  0
    0.3545   -0.1676    0.3081 C   0  0  0  0  0  0  0  0  0  0  0  0
    2.8850    0.2112    0.1739 C   0  0  0  0  0  0  0  0  0  0  0  0
   -0.8650   -1.0410   -0.0127 C   0  0  0  0  0  0  0  0  0  0  0  0
    4.2268   -0.3098   -0.3479 C   0  0  0  0  0  0  0  0  0  0  0  0
   -2.1853   -0.4972    0.5225 C   0  0  1  0  0  0  0  0  0  0  0  0
    5.4077    0.5782    0.0127 C   0  0  0  0  0  0  0  0  0  0  0  0
   -2.5543    0.8324   -0.0968 C   0  0  0  0  0  0  0  0  0  0  0  0
    1.8824   -1.6907    0.3631 H   0  0  0  0  0  0  0  0  0  0  0  0
    1.6817   -0.9231   -1.2087 H   0  0  0  0  0  0  0  0  0  0  0  0
    0.3843    0.0081    1.3910 H   0  0  0  0  0  0  0  0  0  0  0  0
    0.2212    0.8147   -0.1617 H   0  0  0  0  0  0  0  0  0  0  0  0
    2.6884    1.1949   -0.2700 H   0  0  0  0  0  0  0  0  0  0  0  0
    2.9505    0.3609    1.2586 H   0  0  0  0  0  0  0  0  0  0  0  0
   -0.9210   -1.1616   -1.1030 H   0  0  0  0  0  0  0  0  0  0  0  0
   -0.6925   -2.0442    0.3981 H   0  0  0  0  0  0  0  0  0  0  0  0
    4.1773   -0.4104   -1.4387 H   0  0  0  0  0  0  0  0  0  0  0  0
    4.4070   -1.3135    0.0555 H   0  0  0  0  0  0  0  0  0  0  0  0
   -2.2071   -0.4388    1.6145 H   0  0  0  0  0  0  0  0  0  0  0  0
    5.5119    0.6668    1.0988 H   0  0  0  0  0  0  0  0  0  0  0  0
    6.3361    0.1577   -0.3861 H   0  0  0  0  0  0  0  0  0  0  0  0
    5.2811    1.5826   -0.4033 H   0  0  0  0  0  0  0  0  0  0  0  0
   -2.5289    2.7349    0.3281 H   0  0  0  0  0  0  0  0  0  0  0  0
  1  9  1  0  0  0  0
  2 11  1  0  0  0  0
  2 26  1  0  0  0  0
  3 11  2  0  0  0  0
  4  5  1  0  0  0  0
  4  6  1  0  0  0  0
  4 12  1  0  0  0  0
  4 13  1  0  0  0  0
  5  7  1  0  0  0  0
  5 14  1  0  0  0  0
  5 15  1  0  0  0  0
  6  8  1  0  0  0  0
  6 16  1  0  0  0  0
  6 17  1  0  0  0  0
  7  9  1  0  0  0  0
  7 18  1  0  0  0  0
  7 19  1  0  0  0  0
  8 10  1  0  0  0  0
  8 20  1  0  0  0  0
  8 21  1  0  0  0  0
  9 11  1  0  0  0  0
  9 22  1  0  0  0  0
 10 23  1  0  0  0  0
 10 24  1  0  0  0  0
 10 25  1  0  0  0  0
M  END
> <PUBCHEM_COMPOUND_CID>
552003

> <PUBCHEM_CONFORMER_RMSD>
0.6

> <PUBCHEM_CONFORMER_DIVERSEORDER>
1
262
190
237
220
141
103
221
250
31
181
232
123
230
252
95
253
60
265
239
115
215
75
22
19
99
241
41
251
256
213
194
14
243
225
163
201
196
48
170
259
18
219
214
16
248
226
130
155
212
202
92
86
89
21
260
64
76
187
263
100
227
45
160
249
152
145
234
261
254
10
153
176
177
9
70
13
61
222
85
235
149
244
211
93
118
208
218
91
37
127
242
204
63
184
107
154
82
62
161
148
228
116
236
164
6
257
168
96
183
94
106
97
71
90
4
189
59
198
150
24
258
77
217
67
3
231
233
246
245
173
38
108
247
229
166
191
158
165
15
113
240
102
122
193
255
33
172
66
200
126
65
58
44
138
264
147
216
39
56
36
207
174
12
131
135
206
23
129
128
175
49
25
156
88
203
209
101
224
2
27
140
137
111
185
55
78
87
210
146
84
46
47
98
69
119
11
68
26
112
117
238
151
197
5
136
57
8
180
30
83
143
178
52
142
205
114
157
73
28
223
125
35
32
179
34
134
29
7
43
120
124
110
144
186
50
80
17
132
159
121
40
109
162
74
42
188
171
105
199
182
79
51
192
53
133
195
104
72
20
81
139
169
167
54

> <PUBCHEM_MMFF94_PARTIAL_CHARGES>
6
1 -0.23
11 0.66
2 -0.65
26 0.5
3 -0.57
9 0.29

> <PUBCHEM_EFFECTIVE_ROTOR_COUNT>
6

> <PUBCHEM_PHARMACOPHORE_FEATURES>
6
1 1 hydrophobe
1 10 hydrophobe
1 2 acceptor
1 3 acceptor
3 2 3 11 anion
5 4 5 6 7 8 hydrophobe

> <PUBCHEM_HEAVY_ATOM_COUNT>
11

> <PUBCHEM_ATOM_DEF_STEREO_COUNT>
0

> <PUBCHEM_ATOM_UDEF_STEREO_COUNT>
1

> <PUBCHEM_BOND_DEF_STEREO_COUNT>
0

> <PUBCHEM_BOND_UDEF_STEREO_COUNT>
0

> <PUBCHEM_ISOTOPIC_ATOM_COUNT>
0

> <PUBCHEM_COMPONENT_COUNT>
1

> <PUBCHEM_CACTVS_TAUTO_COUNT>
1

> <PUBCHEM_CONFORMER_ID>
00086C4300000001

> <PUBCHEM_MMFF94_ENERGY>
5.9693

> <PUBCHEM_FEATURE_SELFOVERLAP>
30.507

> <PUBCHEM_SHAPE_FINGERPRINT>
10014705 185 18040713653887936924
10680689 15 18410583902621633162
12932764 1 16630235935641562570
14123238 8 18272937163084958478
14325111 11 18410013213084357906
1986462 14 18410860957955540534
20300324 65 18410856585430770339
20645477 56 18409452445021652753
20645477 70 17560816403147472590
20828058 21 18335142007746278766
23380061 127 18334293197047999478
23402539 116 18337386140711226311
23557571 272 18343309179689968695

> <PUBCHEM_SHAPE_MULTIPOLES>
220.58
9.77
1.53
0.79
12.28
0.26
-0.07
0.07
-0.73
-2.04
0.06
-0.38
0.14
0.22

> <PUBCHEM_SHAPE_SELFOVERLAP>
389.945

> <PUBCHEM_SHAPE_VOLUME>
145.4

> <PUBCHEM_COORDINATE_TYPE>
2
5
10

$$$$
