552119
  -OEChem-11232109053D

 28 27  0     1  0  0  0  0  0999 V2000
   -0.1292    1.0289   -0.1260 O   0  0  0  0  0  0  0  0  0  0  0  0
    1.7619   -0.3871   -0.1298 O   0  0  0  0  0  0  0  0  0  0  0  0
   -2.3996    0.2708   -0.2051 C   0  0  0  0  0  0  0  0  0  0  0  0
   -1.0007    0.0033    0.3318 C   0  0  0  0  0  0  0  0  0  0  0  0
   -3.3946   -0.7875    0.2625 C   0  0  0  0  0  0  0  0  0  0  0  0
    1.2147    0.8476    0.3392 C   0  0  1  0  0  0  0  0  0  0  0  0
   -4.7988   -0.4928   -0.2402 C   0  0  0  0  0  0  0  0  0  0  0  0
    2.0326    2.0049   -0.2198 C   0  0  0  0  0  0  0  0  0  0  0  0
    3.1135   -0.5804    0.2645 C   0  0  0  0  0  0  0  0  0  0  0  0
    3.6002   -1.9076   -0.2772 C   0  0  0  0  0  0  0  0  0  0  0  0
   -2.3692    0.3063   -1.3013 H   0  0  0  0  0  0  0  0  0  0  0  0
   -2.7260    1.2675    0.1179 H   0  0  0  0  0  0  0  0  0  0  0  0
   -1.0115   -0.0032    1.4279 H   0  0  0  0  0  0  0  0  0  0  0  0
   -0.6531   -0.9731   -0.0242 H   0  0  0  0  0  0  0  0  0  0  0  0
   -3.4081   -0.8285    1.3579 H   0  0  0  0  0  0  0  0  0  0  0  0
   -3.0830   -1.7756   -0.0953 H   0  0  0  0  0  0  0  0  0  0  0  0
    1.2171    0.8720    1.4359 H   0  0  0  0  0  0  0  0  0  0  0  0
   -5.1532    0.4746    0.1296 H   0  0  0  0  0  0  0  0  0  0  0  0
   -4.8277   -0.4743   -1.3344 H   0  0  0  0  0  0  0  0  0  0  0  0
   -5.4946   -1.2639    0.1051 H   0  0  0  0  0  0  0  0  0  0  0  0
    2.2130    1.8765   -1.2930 H   0  0  0  0  0  0  0  0  0  0  0  0
    3.0011    2.1081    0.2779 H   0  0  0  0  0  0  0  0  0  0  0  0
    1.4970    2.9520   -0.0903 H   0  0  0  0  0  0  0  0  0  0  0  0
    3.7658    0.1941   -0.1476 H   0  0  0  0  0  0  0  0  0  0  0  0
    3.1862   -0.5719    1.3574 H   0  0  0  0  0  0  0  0  0  0  0  0
    4.6395   -2.0907    0.0101 H   0  0  0  0  0  0  0  0  0  0  0  0
    2.9804   -2.7278    0.0998 H   0  0  0  0  0  0  0  0  0  0  0  0
    3.5264   -1.9294   -1.3695 H   0  0  0  0  0  0  0  0  0  0  0  0
  1  4  1  0  0  0  0
  1  6  1  0  0  0  0
  2  6  1  0  0  0  0
  2  9  1  0  0  0  0
  3  4  1  0  0  0  0
  3  5  1  0  0  0  0
  3 11  1  0  0  0  0
  3 12  1  0  0  0  0
  4 13  1  0  0  0  0
  4 14  1  0  0  0  0
  5  7  1  0  0  0  0
  5 15  1  0  0  0  0
  5 16  1  0  0  0  0
  6  8  1  0  0  0  0
  6 17  1  0  0  0  0
  7 18  1  0  0  0  0
  7 19  1  0  0  0  0
  7 20  1  0  0  0  0
  8 21  1  0  0  0  0
  8 22  1  0  0  0  0
  8 23  1  0  0  0  0
  9 10  1  0  0  0  0
  9 24  1  0  0  0  0
  9 25  1  0  0  0  0
 10 26  1  0  0  0  0
 10 27  1  0  0  0  0
 10 28  1  0  0  0  0
M  END
> <PUBCHEM_COMPOUND_CID>
552119

> <PUBCHEM_CONFORMER_RMSD>
0.6

> <PUBCHEM_CONFORMER_DIVERSEORDER>
1
131
153
116
50
160
59
122
78
110
157
151
134
108
80
44
169
146
67
92
123
35
107
135
152
164
127
139
37
112
86
91
61
138
70
155
143
39
105
126
98
111
154
100
81
97
40
46
156
104
94
38
42
140
161
83
49
82
96
30
103
148
137
129
53
57
62
65
73
87
121
76
55
26
60
95
150
69
125
101
31
165
71
115
68
21
47
113
90
142
93
141
16
168
120
159
64
130
54
25
58
162
149
119
66
28
18
74
118
32
22
145
15
144
52
88
84
132
34
102
166
45
14
128
51
23
147
63
133
106
89
99
167
75
114
3
6
136
8
19
124
29
56
43
11
36
10
109
33
117
79
12
27
7
13
17
41
9
48
163
5
158
85
72
77
4
2
20
24

> <PUBCHEM_MMFF94_PARTIAL_CHARGES>
5
1 -0.56
2 -0.56
4 0.28
6 0.56
9 0.28

> <PUBCHEM_EFFECTIVE_ROTOR_COUNT>
6

> <PUBCHEM_PHARMACOPHORE_FEATURES>
3
1 1 acceptor
1 2 acceptor
1 7 hydrophobe

> <PUBCHEM_HEAVY_ATOM_COUNT>
10

> <PUBCHEM_ATOM_DEF_STEREO_COUNT>
0

> <PUBCHEM_ATOM_UDEF_STEREO_COUNT>
1

> <PUBCHEM_BOND_DEF_STEREO_COUNT>
0

> <PUBCHEM_BOND_UDEF_STEREO_COUNT>
0

> <PUBCHEM_ISOTOPIC_ATOM_COUNT>
0

> <PUBCHEM_COMPONENT_COUNT>
1

> <PUBCHEM_CACTVS_TAUTO_COUNT>
1

> <PUBCHEM_CONFORMER_ID>
00086CB700000001

> <PUBCHEM_MMFF94_ENERGY>
10.4965

> <PUBCHEM_FEATURE_SELFOVERLAP>
15.261

> <PUBCHEM_SHAPE_FINGERPRINT>
12932764 1 17560516326108083633
14251717 144 18410855468787064442
14252887 29 18059576845873948882
14325111 11 18336827601989514881
15477762 27 18410293614371758174
177051 138 18202282489579973499
18186145 218 17676199191656571857
20201158 50 18407762521071717227
20645477 70 18408600392240360535
20671657 53 18336830801355061028
20711978 1 18410577275196919048
20871998 22 18341331081273385558
21501925 9 18341607118520825792
22485316 2 18343016726987858847
23532345 12 18131356267506320369
94968 8 18408042888347733538

> <PUBCHEM_SHAPE_MULTIPOLES>
194.06
8.21
1.71
0.66
6.76
0.2
-0.01
-4.11
0.58
-2.17
0.18
0.01
-0.01
0.13

> <PUBCHEM_SHAPE_SELFOVERLAP>
343.421

> <PUBCHEM_SHAPE_VOLUME>
127.1

> <PUBCHEM_COORDINATE_TYPE>
2
5
10

$$$$
