55253565
  -OEChem-11232109263D

 30 30  0     1  0  0  0  0  0999 V2000
    2.6894    1.2095   -0.2670 O   0  0  0  0  0  0  0  0  0  0  0  0
    5.6092   -0.7428    0.2477 O   0  0  0  0  0  0  0  0  0  0  0  0
    2.3457   -0.0276    0.3699 C   0  0  2  0  0  0  0  0  0  0  0  0
    3.5509    0.0915   -0.5169 C   0  0  2  0  0  0  0  0  0  0  0  0
    1.0591   -0.6624   -0.1358 C   0  0  0  0  0  0  0  0  0  0  0  0
   -0.1669    0.1445    0.2937 C   0  0  0  0  0  0  0  0  0  0  0  0
   -1.4895   -0.4473   -0.2022 C   0  0  0  0  0  0  0  0  0  0  0  0
   -2.7206    0.3176    0.2884 C   0  0  0  0  0  0  0  0  0  0  0  0
   -4.0119   -0.3294   -0.2163 C   0  0  0  0  0  0  0  0  0  0  0  0
    4.8944    0.2318    0.0546 C   0  0  0  0  0  0  0  0  0  0  0  0
   -5.2460    0.4087    0.3025 C   0  0  0  0  0  0  0  0  0  0  0  0
   -6.5139   -0.1943   -0.2187 C   0  0  0  0  0  0  0  0  0  0  0  0
    2.4712   -0.0975    1.4418 H   0  0  0  0  0  0  0  0  0  0  0  0
    3.5043   -0.3581   -1.5017 H   0  0  0  0  0  0  0  0  0  0  0  0
    1.0820   -0.7404   -1.2294 H   0  0  0  0  0  0  0  0  0  0  0  0
    0.9961   -1.6822    0.2603 H   0  0  0  0  0  0  0  0  0  0  0  0
   -0.1868    0.2093    1.3890 H   0  0  0  0  0  0  0  0  0  0  0  0
   -0.0761    1.1744   -0.0738 H   0  0  0  0  0  0  0  0  0  0  0  0
   -1.5588   -1.4905    0.1307 H   0  0  0  0  0  0  0  0  0  0  0  0
   -1.4850   -0.4649   -1.2991 H   0  0  0  0  0  0  0  0  0  0  0  0
   -2.6677    1.3574   -0.0559 H   0  0  0  0  0  0  0  0  0  0  0  0
   -2.7234    0.3392    1.3849 H   0  0  0  0  0  0  0  0  0  0  0  0
   -4.0501   -1.3771    0.1064 H   0  0  0  0  0  0  0  0  0  0  0  0
   -4.0156   -0.3292   -1.3132 H   0  0  0  0  0  0  0  0  0  0  0  0
    5.2310    1.2544    0.2927 H   0  0  0  0  0  0  0  0  0  0  0  0
   -5.1971    1.4628    0.0047 H   0  0  0  0  0  0  0  0  0  0  0  0
   -5.2547    0.3864    1.3987 H   0  0  0  0  0  0  0  0  0  0  0  0
   -6.6109   -1.2412    0.0870 H   0  0  0  0  0  0  0  0  0  0  0  0
   -6.5524   -0.1554   -1.3123 H   0  0  0  0  0  0  0  0  0  0  0  0
   -7.3833    0.3485    0.1660 H   0  0  0  0  0  0  0  0  0  0  0  0
  1  3  1  0  0  0  0
  1  4  1  0  0  0  0
  2 10  2  0  0  0  0
  3  4  1  0  0  0  0
  3  5  1  0  0  0  0
  3 13  1  0  0  0  0
  4 10  1  0  0  0  0
  4 14  1  0  0  0  0
  5  6  1  0  0  0  0
  5 15  1  0  0  0  0
  5 16  1  0  0  0  0
  6  7  1  0  0  0  0
  6 17  1  0  0  0  0
  6 18  1  0  0  0  0
  7  8  1  0  0  0  0
  7 19  1  0  0  0  0
  7 20  1  0  0  0  0
  8  9  1  0  0  0  0
  8 21  1  0  0  0  0
  8 22  1  0  0  0  0
  9 11  1  0  0  0  0
  9 23  1  0  0  0  0
  9 24  1  0  0  0  0
 10 25  1  0  0  0  0
 11 12  1  0  0  0  0
 11 26  1  0  0  0  0
 11 27  1  0  0  0  0
 12 28  1  0  0  0  0
 12 29  1  0  0  0  0
 12 30  1  0  0  0  0
M  END
> <PUBCHEM_COMPOUND_CID>
55253565

> <PUBCHEM_CONFORMER_RMSD>
0.8

> <PUBCHEM_CONFORMER_DIVERSEORDER>
1
19
35
252
140
205
159
210
4
253
108
78
67
245
29
221
95
5
144
218
30
80
185
157
184
56
234
105
3
26
34
165
2
38
66
84
226
54
125
7
139
196
229
83
123
247
47
58
6
212
25
68
206
12
237
8
178
97
194
117
113
98
217
254
228
49
240
124
77
211
189
224
149
72
89
233
119
81
207
126
136
41
223
133
65
179
227
164
166
132
48
10
27
248
37
55
154
9
173
42
116
156
82
79
188
230
70
183
251
128
86
232
174
239
167
175
32
246
17
141
176
87
74
11
134
130
200
242
169
109
202
255
28
102
20
88
44
90
209
243
143
150
138
190
14
104
111
201
231
220
92
24
199
160
100
115
213
236
59
158
244
16
103
18
148
162
170
96
94
238
43
13
93
203
195
145
249
15
187
135
118
191
155
235
73
225
146
36
198
64
142
99
127
121
250
153
172
57
22
241
147
171
131
85
21
75
101
151
193
120
40
182
107
50
222
76
106
60
204
110
91
197
112
52
215
33
122
39
137
152
61
71
186
31
45
62
51
53
129
192
216
161
69
177
23
168
46
63
180
214
114
219
208
163
181

> <PUBCHEM_MMFF94_PARTIAL_CHARGES>
9
1 -0.3
10 0.51
13 0.1
14 0.1
2 -0.57
25 0.06
3 -0.05
4 0.05
5 0.09

> <PUBCHEM_EFFECTIVE_ROTOR_COUNT>
7.6

> <PUBCHEM_PHARMACOPHORE_FEATURES>
5
1 1 acceptor
1 12 hydrophobe
1 2 acceptor
3 5 6 7 hydrophobe
3 8 9 11 hydrophobe

> <PUBCHEM_HEAVY_ATOM_COUNT>
12

> <PUBCHEM_ATOM_DEF_STEREO_COUNT>
0

> <PUBCHEM_ATOM_UDEF_STEREO_COUNT>
2

> <PUBCHEM_BOND_DEF_STEREO_COUNT>
0

> <PUBCHEM_BOND_UDEF_STEREO_COUNT>
0

> <PUBCHEM_ISOTOPIC_ATOM_COUNT>
0

> <PUBCHEM_COMPONENT_COUNT>
1

> <PUBCHEM_CACTVS_TAUTO_COUNT>
2

> <PUBCHEM_CONFORMER_ID>
034B1A3D00000001

> <PUBCHEM_MMFF94_ENERGY>
3.5798

> <PUBCHEM_FEATURE_SELFOVERLAP>
25.387

> <PUBCHEM_SHAPE_FINGERPRINT>
11287383 113 14692564446501681626
114248 4 13973966501923824867
12091667 2 18408041810859081163
12815109 37 10159697992979723855
14123238 8 10592044656745299507
1420 363 16950287299719794035
14251718 22 12751235904826844759
14251764 46 16515402976007494363
15242439 84 17385725807093565081
17834072 33 17917990620388212581
17834076 25 17530965787275322907
187816 3 15626225719349304075
20645477 70 18271529680453164046
20767249 13 16343985805896100699
20767249 213 18260268568439558773
212847 35 18335706069964484404
22485316 2 13973965398054037012
23218964 4 18333448733589457063
23402539 116 18060132150584727317
23521765 1 18341894090834070571
23557571 272 17313382284319101877
366044 4 18342176674366485487
42788 4 18342176669933906921
8209 1 18410573985156725918

> <PUBCHEM_SHAPE_MULTIPOLES>
235.22
15.13
0.83
0.68
8.02
0.05
0
-0.32
0.16
-0.25
0.02
-0.03
0.01
-0.28

> <PUBCHEM_SHAPE_SELFOVERLAP>
437.571

> <PUBCHEM_SHAPE_VOLUME>
148.4

> <PUBCHEM_COORDINATE_TYPE>
2
5
10

$$$$
