55250280
  -OEChem-11232109023D

 33 34  0     1  0  0  0  0  0999 V2000
   -1.8444   -0.0766    0.4688 O   0  0  0  0  0  0  0  0  0  0  0  0
    0.9924   -1.8289   -0.2923 C   0  0  1  0  0  0  0  0  0  0  0  0
    0.5482    0.0101    0.9015 C   0  0  2  0  0  0  0  0  0  0  0  0
    0.7500   -1.4837    1.1786 C   0  0  0  0  0  0  0  0  0  0  0  0
   -0.5716    0.0059   -0.1562 C   0  0  1  0  0  0  0  0  0  0  0  0
   -0.2963   -1.2872   -0.9511 C   0  0  0  0  0  0  0  0  0  0  0  0
    2.1887   -0.9156   -0.6360 C   0  0  0  0  0  0  0  0  0  0  0  0
    1.8384    0.3103    0.1723 C   0  0  0  0  0  0  0  0  0  0  0  0
    2.5606    1.4303    0.2588 C   0  0  0  0  0  0  0  0  0  0  0  0
   -2.8652    0.4800   -0.3491 C   0  0  0  0  0  0  0  0  0  0  0  0
    3.8575    1.6464   -0.4486 C   0  0  0  0  0  0  0  0  0  0  0  0
   -4.1703   -0.2582   -0.0927 C   0  0  0  0  0  0  0  0  0  0  0  0
   -2.9880    1.9672   -0.0541 C   0  0  0  0  0  0  0  0  0  0  0  0
    1.1766   -2.8845   -0.5026 H   0  0  0  0  0  0  0  0  0  0  0  0
    0.3498    0.6107    1.7913 H   0  0  0  0  0  0  0  0  0  0  0  0
    1.6113   -1.6995    1.8213 H   0  0  0  0  0  0  0  0  0  0  0  0
   -0.1408   -1.9691    1.5917 H   0  0  0  0  0  0  0  0  0  0  0  0
   -0.4971    0.8945   -0.7965 H   0  0  0  0  0  0  0  0  0  0  0  0
   -0.1463   -1.0832   -2.0163 H   0  0  0  0  0  0  0  0  0  0  0  0
   -1.1159   -2.0075   -0.8488 H   0  0  0  0  0  0  0  0  0  0  0  0
    2.2497   -0.7129   -1.7092 H   0  0  0  0  0  0  0  0  0  0  0  0
    3.1235   -1.3622   -0.2804 H   0  0  0  0  0  0  0  0  0  0  0  0
    2.2068    2.2409    0.8903 H   0  0  0  0  0  0  0  0  0  0  0  0
   -2.6233    0.3416   -1.4114 H   0  0  0  0  0  0  0  0  0  0  0  0
    4.6487    1.8377    0.2831 H   0  0  0  0  0  0  0  0  0  0  0  0
    3.7792    2.5218   -1.1009 H   0  0  0  0  0  0  0  0  0  0  0  0
    4.1669    0.7971   -1.0634 H   0  0  0  0  0  0  0  0  0  0  0  0
   -4.0524   -1.3257   -0.3079 H   0  0  0  0  0  0  0  0  0  0  0  0
   -4.9811    0.1362   -0.7126 H   0  0  0  0  0  0  0  0  0  0  0  0
   -4.4631   -0.1805    0.9602 H   0  0  0  0  0  0  0  0  0  0  0  0
   -2.0538    2.4957   -0.2688 H   0  0  0  0  0  0  0  0  0  0  0  0
   -3.7841    2.4242   -0.6500 H   0  0  0  0  0  0  0  0  0  0  0  0
   -3.2057    2.1364    1.0064 H   0  0  0  0  0  0  0  0  0  0  0  0
  1  5  1  0  0  0  0
  1 10  1  0  0  0  0
  2  4  1  0  0  0  0
  2  6  1  0  0  0  0
  2  7  1  0  0  0  0
  2 14  1  0  0  0  0
  3  4  1  0  0  0  0
  3  5  1  0  0  0  0
  3  8  1  0  0  0  0
  3 15  1  0  0  0  0
  4 16  1  0  0  0  0
  4 17  1  0  0  0  0
  5  6  1  0  0  0  0
  5 18  1  0  0  0  0
  6 19  1  0  0  0  0
  6 20  1  0  0  0  0
  7  8  1  0  0  0  0
  7 21  1  0  0  0  0
  7 22  1  0  0  0  0
  8  9  2  0  0  0  0
  9 11  1  0  0  0  0
  9 23  1  0  0  0  0
 10 12  1  0  0  0  0
 10 13  1  0  0  0  0
 10 24  1  0  0  0  0
 11 25  1  0  0  0  0
 11 26  1  0  0  0  0
 11 27  1  0  0  0  0
 12 28  1  0  0  0  0
 12 29  1  0  0  0  0
 12 30  1  0  0  0  0
 13 31  1  0  0  0  0
 13 32  1  0  0  0  0
 13 33  1  0  0  0  0
M  END
> <PUBCHEM_COMPOUND_CID>
55250280

> <PUBCHEM_CONFORMER_RMSD>
0.6

> <PUBCHEM_CONFORMER_DIVERSEORDER>
2
3
1

> <PUBCHEM_MMFF94_PARTIAL_CHARGES>
9
1 -0.56
10 0.28
11 0.14
23 0.15
3 0.14
5 0.28
7 0.14
8 -0.28
9 -0.29

> <PUBCHEM_EFFECTIVE_ROTOR_COUNT>
2.8

> <PUBCHEM_PHARMACOPHORE_FEATURES>
4
1 1 acceptor
1 11 hydrophobe
3 10 12 13 hydrophobe
7 2 3 4 5 6 7 8 rings

> <PUBCHEM_HEAVY_ATOM_COUNT>
13

> <PUBCHEM_ATOM_DEF_STEREO_COUNT>
2

> <PUBCHEM_ATOM_UDEF_STEREO_COUNT>
1

> <PUBCHEM_BOND_DEF_STEREO_COUNT>
1

> <PUBCHEM_BOND_UDEF_STEREO_COUNT>
0

> <PUBCHEM_ISOTOPIC_ATOM_COUNT>
0

> <PUBCHEM_COMPONENT_COUNT>
1

> <PUBCHEM_CACTVS_TAUTO_COUNT>
1

> <PUBCHEM_CONFORMER_ID>
034B0D6800000002

> <PUBCHEM_MMFF94_ENERGY>
36.0136

> <PUBCHEM_FEATURE_SELFOVERLAP>
20.297

> <PUBCHEM_SHAPE_FINGERPRINT>
10608611 8 18337106753246805453
10922049 32 18336270136440311690
10980938 120 18412260618845689072
11031198 65 18272371992169033172
12346645 44 18408038528539001729
12423570 1 13707035951262670906
12932764 1 17751081302174929029
13380535 76 18410855507768648842
14415576 193 18340207392937317765
14648413 74 18124035624577987081
14897335 6 18343298214923240006
15375462 6 18411980243760258581
15775835 57 18342176704008997181
16945 1 18269569238430583930
170605 34 18408039615181318104
18186145 218 18060150837903146292
20645477 56 18055354893111749336
20645477 70 18270112410539596959
20653085 51 18196378232883184328
20820808 20 18272370879957165466
21501502 16 18268144271603410457
21524375 3 18336261344647628984
231179 274 18114454596017516068
23402539 116 18263916816507861854
23402655 69 18273209773328330685
25 1 18413112770817625372
305870 269 18259979375448834810
3248919 1 18056464076942052505
449060 62 18411138026464720849
528886 8 18201434822250083514
58051976 378 18342734156752173063
6333272 397 18114184193450533561
7364860 26 18338514114981654234
81539 233 18260824908148154798

> <PUBCHEM_SHAPE_MULTIPOLES>
261.66
6.02
1.95
0.94
3.4
0.22
-0.09
3.5
0.78
-0.72
0.11
-0.2
-0.26
-0.09

> <PUBCHEM_SHAPE_SELFOVERLAP>
538.438

> <PUBCHEM_SHAPE_VOLUME>
157.5

> <PUBCHEM_COORDINATE_TYPE>
2
5
10

$$$$
