556940
  -OEChem-11232108423D

 28 28  0     0  0  0  0  0  0999 V2000
   -0.8286   -0.5974   -0.1470 S   0  0  0  0  0  0  0  0  0  0  0  0
    4.2632   -0.4836   -0.1739 O   0  0  0  0  0  0  0  0  0  0  0  0
   -4.2244    0.8401   -0.6903 O   0  0  0  0  0  0  0  0  0  0  0  0
    3.2406    1.4775    0.4831 O   0  0  0  0  0  0  0  0  0  0  0  0
    0.6793    0.3725    0.1352 C   0  0  0  0  0  0  0  0  0  0  0  0
    1.9201   -0.4716   -0.1319 C   0  0  0  0  0  0  0  0  0  0  0  0
   -2.0415    0.6662    0.2989 C   0  0  0  0  0  0  0  0  0  0  0  0
   -3.4388    0.1558    0.1653 C   0  0  0  0  0  0  0  0  0  0  0  0
    3.1903    0.3153    0.1045 C   0  0  0  0  0  0  0  0  0  0  0  0
   -4.0939   -0.8837    0.7458 C   0  0  0  0  0  0  0  0  0  0  0  0
    5.5466    0.1245    0.0035 C   0  0  0  0  0  0  0  0  0  0  0  0
   -5.4030   -0.8493    0.2091 C   0  0  0  0  0  0  0  0  0  0  0  0
   -5.4317    0.2170   -0.6592 C   0  0  0  0  0  0  0  0  0  0  0  0
    6.6219   -0.8831   -0.3431 C   0  0  0  0  0  0  0  0  0  0  0  0
    0.6696    1.2473   -0.5241 H   0  0  0  0  0  0  0  0  0  0  0  0
    0.6846    0.7297    1.1709 H   0  0  0  0  0  0  0  0  0  0  0  0
    1.9379   -1.3417    0.5350 H   0  0  0  0  0  0  0  0  0  0  0  0
    1.9271   -0.8138   -1.1735 H   0  0  0  0  0  0  0  0  0  0  0  0
   -1.8968    1.5409   -0.3442 H   0  0  0  0  0  0  0  0  0  0  0  0
   -1.8749    0.9762    1.3360 H   0  0  0  0  0  0  0  0  0  0  0  0
   -3.6989   -1.5852    1.4664 H   0  0  0  0  0  0  0  0  0  0  0  0
    5.6313    0.9970   -0.6538 H   0  0  0  0  0  0  0  0  0  0  0  0
    5.6591    0.4421    1.0461 H   0  0  0  0  0  0  0  0  0  0  0  0
   -6.2232   -1.5176    0.4281 H   0  0  0  0  0  0  0  0  0  0  0  0
   -6.1934    0.6417   -1.2967 H   0  0  0  0  0  0  0  0  0  0  0  0
    7.6184   -0.4504   -0.2182 H   0  0  0  0  0  0  0  0  0  0  0  0
    6.5390   -1.7698    0.2941 H   0  0  0  0  0  0  0  0  0  0  0  0
    6.5115   -1.2240   -1.3778 H   0  0  0  0  0  0  0  0  0  0  0  0
  1  5  1  0  0  0  0
  1  7  1  0  0  0  0
  2  9  1  0  0  0  0
  2 11  1  0  0  0  0
  3  8  1  0  0  0  0
  3 13  1  0  0  0  0
  4  9  2  0  0  0  0
  5  6  1  0  0  0  0
  5 15  1  0  0  0  0
  5 16  1  0  0  0  0
  6  9  1  0  0  0  0
  6 17  1  0  0  0  0
  6 18  1  0  0  0  0
  7  8  1  0  0  0  0
  7 19  1  0  0  0  0
  7 20  1  0  0  0  0
  8 10  2  0  0  0  0
 10 12  1  0  0  0  0
 10 21  1  0  0  0  0
 11 14  1  0  0  0  0
 11 22  1  0  0  0  0
 11 23  1  0  0  0  0
 12 13  2  0  0  0  0
 12 24  1  0  0  0  0
 13 25  1  0  0  0  0
 14 26  1  0  0  0  0
 14 27  1  0  0  0  0
 14 28  1  0  0  0  0
M  END
> <PUBCHEM_COMPOUND_CID>
556940

> <PUBCHEM_CONFORMER_RMSD>
0.8

> <PUBCHEM_CONFORMER_DIVERSEORDER>
1
125
104
41
83
32
50
123
159
194
81
187
2
90
7
151
69
4
140
216
42
44
14
33
59
195
84
108
208
130
204
136
119
111
201
30
57
8
184
182
101
202
9
27
175
21
36
64
61
120
126
49
112
43
115
5
171
203
40
164
135
91
114
186
94
87
51
76
45
217
181
215
56
149
185
189
142
6
37
109
16
166
176
35
52
74
113
193
72
169
180
212
85
47
11
53
55
200
26
103
70
68
29
178
34
162
12
80
24
13
48
214
95
188
147
10
110
20
167
127
88
192
198
22
161
148
39
206
207
177
100
65
58
190
137
3
209
124
155
150
205
210
15
78
92
79
179
67
163
23
75
213
146
73
105
18
133
102
19
199
89
183
118
153
138
160
121
134
38
17
196
46
62
197
170
129
174
86
154
99
31
28
122
173
152
82
93
97
145
25
60
143
66
211
117
158
116
168
172
139
77
144
128
131
63
191
106
132
141
54
156
107
96
157
165
71
98

> <PUBCHEM_MMFF94_PARTIAL_CHARGES>
16
1 -0.46
10 -0.15
11 0.28
12 -0.15
13 -0.01
2 -0.43
21 0.15
24 0.15
25 0.15
3 -0.28
4 -0.57
5 0.23
6 0.06
7 0.41
8 -0.04
9 0.66

> <PUBCHEM_EFFECTIVE_ROTOR_COUNT>
7

> <PUBCHEM_PHARMACOPHORE_FEATURES>
4
1 3 acceptor
1 4 acceptor
4 1 5 6 7 hydrophobe
5 3 8 10 12 13 rings

> <PUBCHEM_HEAVY_ATOM_COUNT>
14

> <PUBCHEM_ATOM_DEF_STEREO_COUNT>
0

> <PUBCHEM_ATOM_UDEF_STEREO_COUNT>
0

> <PUBCHEM_BOND_DEF_STEREO_COUNT>
0

> <PUBCHEM_BOND_UDEF_STEREO_COUNT>
0

> <PUBCHEM_ISOTOPIC_ATOM_COUNT>
0

> <PUBCHEM_COMPONENT_COUNT>
1

> <PUBCHEM_CACTVS_TAUTO_COUNT>
1

> <PUBCHEM_CONFORMER_ID>
00087F8C00000001

> <PUBCHEM_MMFF94_ENERGY>
10.0065

> <PUBCHEM_FEATURE_SELFOVERLAP>
20.297

> <PUBCHEM_SHAPE_FINGERPRINT>
11315181 36 18410578392241779097
12091667 2 17167583782574720441
13288520 33 18259705614644805303
13533116 47 15195294080305248566
14123238 8 16845855689270980014
1420 363 18343869917693073342
14251718 22 18040436598669761978
14251731 8 18407759244116957386
14251764 18 8790882999967339503
15048467 5 11314307252087957479
15242439 84 18260829306152487393
17834072 33 17894636988881795932
17834072 8 18334856116915297454
17834076 25 14923944548274777153
19433438 28 18410008849213007929
19489759 90 17749106686618224365
200 152 17846499223029878553
20281389 69 10807939249511664418
20645477 70 18342459184393547382
220451 1 15936126361102663144
23402539 116 16773796978636734745
23557571 272 18114462266982133317
23559900 14 18333729147619731097
300161 21 11963389673859301680
3545911 37 18186521003707980955
42788 4 18333169470668557964
542803 24 15285357318754136638
57483677 66 18410290311362923298
59755656 215 18335985281599211014
8209 1 18407759235806370319

> <PUBCHEM_SHAPE_MULTIPOLES>
274.35
16.68
1.05
0.74
10.64
0.06
-0.01
-2.76
-1.54
0.08
0.06
-0.4
0
0.72

> <PUBCHEM_SHAPE_SELFOVERLAP>
530.738

> <PUBCHEM_SHAPE_VOLUME>
168.7

> <PUBCHEM_COORDINATE_TYPE>
2
5
10

$$$$
