557222
  -OEChem-11232108593D

 30 30  0     0  0  0  0  0  0999 V2000
    0.6756    0.2126    0.0610 O   0  0  0  0  0  0  0  0  0  0  0  0
    3.1811   -0.8178   -0.8140 O   0  0  0  0  0  0  0  0  0  0  0  0
   -0.7208    2.0011   -0.3532 O   0  0  0  0  0  0  0  0  0  0  0  0
   -4.1292   -0.6755    0.1990 C   0  0  0  0  0  0  0  0  0  0  0  0
   -3.0360    0.3684   -0.0494 C   0  0  0  0  0  0  0  0  0  0  0  0
   -5.5194   -0.0920   -0.0545 C   0  0  0  0  0  0  0  0  0  0  0  0
   -1.6310   -0.1948    0.1637 C   0  0  0  0  0  0  0  0  0  0  0  0
   -6.6069   -1.1353    0.1467 C   0  0  0  0  0  0  0  0  0  0  0  0
   -0.5385    0.8254   -0.0686 C   0  0  0  0  0  0  0  0  0  0  0  0
    1.8152    1.0489   -0.1627 C   0  0  0  0  0  0  0  0  0  0  0  0
    3.0629    0.2347    0.0155 C   0  0  0  0  0  0  0  0  0  0  0  0
    4.1126    0.3530    0.8631 C   0  0  0  0  0  0  0  0  0  0  0  0
    4.9728   -0.7232    0.5397 C   0  0  0  0  0  0  0  0  0  0  0  0
    4.3617   -1.4055   -0.4863 C   0  0  0  0  0  0  0  0  0  0  0  0
   -4.0629   -1.0392    1.2315 H   0  0  0  0  0  0  0  0  0  0  0  0
   -3.9664   -1.5374   -0.4593 H   0  0  0  0  0  0  0  0  0  0  0  0
   -3.1203    0.7523   -1.0740 H   0  0  0  0  0  0  0  0  0  0  0  0
   -3.1910    1.2257    0.6178 H   0  0  0  0  0  0  0  0  0  0  0  0
   -5.6981    0.7514    0.6225 H   0  0  0  0  0  0  0  0  0  0  0  0
   -5.5805    0.2950   -1.0783 H   0  0  0  0  0  0  0  0  0  0  0  0
   -1.5351   -0.5625    1.1917 H   0  0  0  0  0  0  0  0  0  0  0  0
   -1.4677   -1.0300   -0.5271 H   0  0  0  0  0  0  0  0  0  0  0  0
   -6.4757   -1.9768   -0.5411 H   0  0  0  0  0  0  0  0  0  0  0  0
   -6.5940   -1.5227    1.1705 H   0  0  0  0  0  0  0  0  0  0  0  0
   -7.5923   -0.6963   -0.0381 H   0  0  0  0  0  0  0  0  0  0  0  0
    1.8060    1.8792    0.5529 H   0  0  0  0  0  0  0  0  0  0  0  0
    1.7859    1.4478   -1.1833 H   0  0  0  0  0  0  0  0  0  0  0  0
    4.2598    1.1072    1.6225 H   0  0  0  0  0  0  0  0  0  0  0  0
    5.9198   -0.9707    0.9971 H   0  0  0  0  0  0  0  0  0  0  0  0
    4.6229   -2.2819   -1.0614 H   0  0  0  0  0  0  0  0  0  0  0  0
  1  9  1  0  0  0  0
  1 10  1  0  0  0  0
  2 11  1  0  0  0  0
  2 14  1  0  0  0  0
  3  9  2  0  0  0  0
  4  5  1  0  0  0  0
  4  6  1  0  0  0  0
  4 15  1  0  0  0  0
  4 16  1  0  0  0  0
  5  7  1  0  0  0  0
  5 17  1  0  0  0  0
  5 18  1  0  0  0  0
  6  8  1  0  0  0  0
  6 19  1  0  0  0  0
  6 20  1  0  0  0  0
  7  9  1  0  0  0  0
  7 21  1  0  0  0  0
  7 22  1  0  0  0  0
  8 23  1  0  0  0  0
  8 24  1  0  0  0  0
  8 25  1  0  0  0  0
 10 11  1  0  0  0  0
 10 26  1  0  0  0  0
 10 27  1  0  0  0  0
 11 12  2  0  0  0  0
 12 13  1  0  0  0  0
 12 28  1  0  0  0  0
 13 14  2  0  0  0  0
 13 29  1  0  0  0  0
 14 30  1  0  0  0  0
M  END
> <PUBCHEM_COMPOUND_CID>
557222

> <PUBCHEM_CONFORMER_RMSD>
0.8

> <PUBCHEM_CONFORMER_DIVERSEORDER>
1
169
156
30
180
87
210
196
88
49
131
189
8
96
192
198
94
128
13
168
42
202
78
99
26
28
172
3
154
22
208
162
181
43
7
207
130
194
125
14
86
165
92
209
5
187
81
2
213
167
17
4
215
144
123
24
121
217
35
105
79
109
55
6
16
37
136
122
102
199
113
112
218
186
163
126
69
47
138
48
184
157
197
115
31
191
101
18
153
52
204
134
117
152
177
90
124
107
118
19
211
73
91
12
164
23
139
178
195
63
205
45
33
76
75
15
212
206
38
145
132
108
166
9
133
39
160
114
200
103
77
201
203
129
10
11
193
71
51
32
89
188
98
141
151
183
40
140
104
60
146
27
84
65
64
174
159
67
158
147
25
173
53
50
149
41
56
95
66
58
150
85
179
34
182
36
20
116
74
216
57
190
161
44
155
135
46
83
137
29
100
111
70
120
54
171
185
82
106
72
21
59
119
62
93
175
148
61
110
143
214
68
80
127
176
170
97
142

> <PUBCHEM_MMFF94_PARTIAL_CHARGES>
13
1 -0.43
10 0.46
11 -0.04
12 -0.15
13 -0.15
14 -0.01
2 -0.28
28 0.15
29 0.15
3 -0.57
30 0.15
7 0.06
9 0.66

> <PUBCHEM_EFFECTIVE_ROTOR_COUNT>
7

> <PUBCHEM_PHARMACOPHORE_FEATURES>
5
1 2 acceptor
1 3 acceptor
1 8 hydrophobe
4 4 5 6 7 hydrophobe
5 2 11 12 13 14 rings

> <PUBCHEM_HEAVY_ATOM_COUNT>
14

> <PUBCHEM_ATOM_DEF_STEREO_COUNT>
0

> <PUBCHEM_ATOM_UDEF_STEREO_COUNT>
0

> <PUBCHEM_BOND_DEF_STEREO_COUNT>
0

> <PUBCHEM_BOND_UDEF_STEREO_COUNT>
0

> <PUBCHEM_ISOTOPIC_ATOM_COUNT>
0

> <PUBCHEM_COMPONENT_COUNT>
1

> <PUBCHEM_CACTVS_TAUTO_COUNT>
1

> <PUBCHEM_CONFORMER_ID>
000880A600000001

> <PUBCHEM_MMFF94_ENERGY>
4.5337

> <PUBCHEM_FEATURE_SELFOVERLAP>
25.372

> <PUBCHEM_SHAPE_FINGERPRINT>
100836 57 10087639312315141571
10354089 29 14979955882902874850
117890 112 12391522975235054475
11858739 19 18342175544747486103
12596602 18 16487257677365550411
12714333 28 12251901507834098591
13533116 47 16558756684978450998
13690532 89 18409168826988052233
13862211 1 18334573555924031043
14123238 8 13254796841554310251
14252887 29 17917999343487928766
14528608 73 10953458548638397795
15048467 5 9511467719333943091
15885798 251 18410013234411670153
17834072 8 17458344156689045779
17834076 25 10735879473745991891
17859628 70 17560528283518887966
187816 3 17022904545049841337
19141452 34 18202280346829363943
20374829 77 18259982678368258659
20432913 95 18202006516445871659
20605781 2 9511462221290267171
20645477 70 18335140890848923566
20767249 13 18409448094309342315
20767249 213 11167941364369258179
212847 35 9655579604294832550
21354914 88 18410293609839433529
221357 26 12396291556653353974
22224240 67 17988350560294500050
22289505 5 11746934287514447518
23402539 116 18201996625932728509
23402655 69 11818996283555834464
2871803 45 18187365394162459994
2916195 48 9295282829406606663
293599 30 9295290538946587001
351380 3 18333166167775780723
3545911 37 9871750204111705153
4047638 21 9511461121968588948
42 15 18131352998751195873
42788 4 18412544319111136353
465052 167 18412832394957131271
5104073 3 17987230041596343610
522135 26 12468633928792774424
5374978 207 16630807711910675762
57483677 66 18411697699489977099

> <PUBCHEM_SHAPE_MULTIPOLES>
270.51
14.64
1.34
0.74
14.53
0.2
-0.03
-7
-1.3
-0.28
0.16
-0.48
-0.05
0.45

> <PUBCHEM_SHAPE_SELFOVERLAP>
535.034

> <PUBCHEM_SHAPE_VOLUME>
162.8

> <PUBCHEM_COORDINATE_TYPE>
2
5
10

$$$$
