560109
  -OEChem-11232109273D

 35 35  0     1  0  0  0  0  0999 V2000
    3.2240    1.0762    0.1112 O   0  0  0  0  0  0  0  0  0  0  0  0
    2.3221   -1.0740   -0.1766 O   0  0  0  0  0  0  0  0  0  0  0  0
    2.1341    0.3225   -0.4369 C   0  0  1  0  0  0  0  0  0  0  0  0
    0.8343    0.7948    0.1872 C   0  0  0  0  0  0  0  0  0  0  0  0
   -0.3654    0.0287   -0.3700 C   0  0  0  0  0  0  0  0  0  0  0  0
   -1.6707    0.4844    0.2864 C   0  0  0  0  0  0  0  0  0  0  0  0
    4.2076    0.1033    0.4726 C   0  0  1  0  0  0  0  0  0  0  0  0
   -2.8737   -0.2573   -0.3007 C   0  0  0  0  0  0  0  0  0  0  0  0
    3.3816   -1.1244    0.7787 C   0  0  0  0  0  0  0  0  0  0  0  0
   -4.2156    0.2108    0.2698 C   0  0  0  0  0  0  0  0  0  0  0  0
    5.1706   -0.0981   -0.6911 C   0  0  0  0  0  0  0  0  0  0  0  0
   -5.4218   -0.4782   -0.3697 C   0  0  0  0  0  0  0  0  0  0  0  0
   -6.7270    0.0112    0.2392 C   0  0  0  0  0  0  0  0  0  0  0  0
    2.1196    0.4713   -1.5223 H   0  0  0  0  0  0  0  0  0  0  0  0
    0.8781    0.6559    1.2751 H   0  0  0  0  0  0  0  0  0  0  0  0
    0.7134    1.8718    0.0196 H   0  0  0  0  0  0  0  0  0  0  0  0
   -0.4244    0.1827   -1.4544 H   0  0  0  0  0  0  0  0  0  0  0  0
   -0.2401   -1.0476   -0.2027 H   0  0  0  0  0  0  0  0  0  0  0  0
   -1.6245    0.3102    1.3680 H   0  0  0  0  0  0  0  0  0  0  0  0
   -1.7988    1.5633    0.1369 H   0  0  0  0  0  0  0  0  0  0  0  0
    4.7618    0.4492    1.3507 H   0  0  0  0  0  0  0  0  0  0  0  0
   -2.7616   -1.3335   -0.1203 H   0  0  0  0  0  0  0  0  0  0  0  0
   -2.8847   -0.1187   -1.3891 H   0  0  0  0  0  0  0  0  0  0  0  0
    3.9310   -2.0661    0.6960 H   0  0  0  0  0  0  0  0  0  0  0  0
    2.9332   -1.0604    1.7765 H   0  0  0  0  0  0  0  0  0  0  0  0
   -4.3059    1.2951    0.1285 H   0  0  0  0  0  0  0  0  0  0  0  0
   -4.2247    0.0316    1.3521 H   0  0  0  0  0  0  0  0  0  0  0  0
    5.6768    0.8437   -0.9286 H   0  0  0  0  0  0  0  0  0  0  0  0
    5.9276   -0.8499   -0.4481 H   0  0  0  0  0  0  0  0  0  0  0  0
    4.6492   -0.4108   -1.6023 H   0  0  0  0  0  0  0  0  0  0  0  0
   -5.3439   -1.5629   -0.2340 H   0  0  0  0  0  0  0  0  0  0  0  0
   -5.4308   -0.2850   -1.4486 H   0  0  0  0  0  0  0  0  0  0  0  0
   -6.7611   -0.1963    1.3135 H   0  0  0  0  0  0  0  0  0  0  0  0
   -6.8483    1.0894    0.0930 H   0  0  0  0  0  0  0  0  0  0  0  0
   -7.5769   -0.4931   -0.2314 H   0  0  0  0  0  0  0  0  0  0  0  0
  1  3  1  0  0  0  0
  1  7  1  0  0  0  0
  2  3  1  0  0  0  0
  2  9  1  0  0  0  0
  3  4  1  0  0  0  0
  3 14  1  0  0  0  0
  4  5  1  0  0  0  0
  4 15  1  0  0  0  0
  4 16  1  0  0  0  0
  5  6  1  0  0  0  0
  5 17  1  0  0  0  0
  5 18  1  0  0  0  0
  6  8  1  0  0  0  0
  6 19  1  0  0  0  0
  6 20  1  0  0  0  0
  7  9  1  0  0  0  0
  7 11  1  0  0  0  0
  7 21  1  0  0  0  0
  8 10  1  0  0  0  0
  8 22  1  0  0  0  0
  8 23  1  0  0  0  0
  9 24  1  0  0  0  0
  9 25  1  0  0  0  0
 10 12  1  0  0  0  0
 10 26  1  0  0  0  0
 10 27  1  0  0  0  0
 11 28  1  0  0  0  0
 11 29  1  0  0  0  0
 11 30  1  0  0  0  0
 12 13  1  0  0  0  0
 12 31  1  0  0  0  0
 12 32  1  0  0  0  0
 13 33  1  0  0  0  0
 13 34  1  0  0  0  0
 13 35  1  0  0  0  0
M  END
> <PUBCHEM_COMPOUND_CID>
560109

> <PUBCHEM_CONFORMER_RMSD>
0.8

> <PUBCHEM_CONFORMER_DIVERSEORDER>
1
123
160
61
146
156
54
10
183
7
172
13
180
167
140
3
47
31
175
2
120
166
119
78
11
127
32
6
105
184
104
161
8
129
87
176
71
40
163
143
79
169
107
49
50
29
141
112
178
23
28
164
70
145
64
168
33
17
43
174
118
58
177
89
5
130
45
86
171
15
155
98
173
124
125
85
26
80
159
56
94
19
157
36
165
139
179
97
53
90
101
148
153
20
46
68
132
57
25
135
182
151
16
88
170
51
81
52
147
27
60
55
77
4
109
99
59
136
113
149
137
114
41
115
75
82
30
158
154
21
62
44
121
134
69
91
48
9
95
108
150
138
103
122
185
38
126
106
144
84
116
128
102
12
110
37
162
65
63
22
181
74
34
96
92
39
142
73
66
100
131
83
152
93
14
67
35
117
133
42
76
24
72
111
18

> <PUBCHEM_MMFF94_PARTIAL_CHARGES>
5
1 -0.56
2 -0.56
3 0.56
7 0.28
9 0.28

> <PUBCHEM_EFFECTIVE_ROTOR_COUNT>
7

> <PUBCHEM_PHARMACOPHORE_FEATURES>
6
1 1 acceptor
1 13 hydrophobe
1 2 acceptor
3 4 5 6 hydrophobe
3 8 10 12 hydrophobe
5 1 2 3 7 9 rings

> <PUBCHEM_HEAVY_ATOM_COUNT>
13

> <PUBCHEM_ATOM_DEF_STEREO_COUNT>
0

> <PUBCHEM_ATOM_UDEF_STEREO_COUNT>
2

> <PUBCHEM_BOND_DEF_STEREO_COUNT>
0

> <PUBCHEM_BOND_UDEF_STEREO_COUNT>
0

> <PUBCHEM_ISOTOPIC_ATOM_COUNT>
0

> <PUBCHEM_COMPONENT_COUNT>
1

> <PUBCHEM_CACTVS_TAUTO_COUNT>
1

> <PUBCHEM_CONFORMER_ID>
00088BED00000001

> <PUBCHEM_MMFF94_ENERGY>
11.7092

> <PUBCHEM_FEATURE_SELFOVERLAP>
30.499

> <PUBCHEM_SHAPE_FINGERPRINT>
11287383 113 16515409594478315861
114248 4 16153426151425233621
12714333 28 11818994088964631303
12815109 37 18411980265140103867
13533116 47 18335698299888760874
14123238 8 18260829297889535317
1420 363 18130793364897629495
14251718 22 15285359531210868227
14251764 46 18343865510977454446
14252887 29 18060426793794121238
17834072 33 18410572916089729365
17834076 25 18410576188480230022
187816 3 16298386860075468113
20279233 1 17095530582098419594
20645477 70 17967809393247914738
220451 1 18334297569931303323
22485316 2 18040150725593903291
23402539 116 17561077013077762461
26918003 58 18335421283514896891
33824 294 18186516575523216322
42 15 18410573985673697109
42788 4 18272369780867569577
522135 26 18186518804600147368
5374978 207 18060132141646756665
57483677 66 18259982691459226811
8209 1 18342458144915918397

> <PUBCHEM_SHAPE_MULTIPOLES>
255.8
14.75
0.94
0.77
16.64
0.08
0
1.51
-0.07
-0.64
0.08
-0.29
0.05
-0.28

> <PUBCHEM_SHAPE_SELFOVERLAP>
482.512

> <PUBCHEM_SHAPE_VOLUME>
159.8

> <PUBCHEM_COORDINATE_TYPE>
2
5
10

$$$$
