560572
  -OEChem-11232108573D

 21 20  0     1  0  0  0  0  0999 V2000
    1.7009    1.1425   -0.3346 S   0  0  0  0  0  0  0  0  0  0  0  0
   -1.8546   -0.2370    0.6707 O   0  0  0  0  0  0  0  0  0  0  0  0
   -1.1003    1.1542   -1.0061 O   0  0  0  0  0  0  0  0  0  0  0  0
    0.4686    0.1221    0.5453 C   0  0  2  0  0  0  0  0  0  0  0  0
    0.8208   -1.3616    0.4120 C   0  0  0  0  0  0  0  0  0  0  0  0
    0.8934   -1.8115   -1.0428 C   0  0  0  0  0  0  0  0  0  0  0  0
   -0.8951    0.4170   -0.0498 C   0  0  0  0  0  0  0  0  0  0  0  0
    3.1693    0.5930    0.5616 C   0  0  0  0  0  0  0  0  0  0  0  0
   -3.2030   -0.0187    0.2437 C   0  0  0  0  0  0  0  0  0  0  0  0
    0.4526    0.4333    1.5954 H   0  0  0  0  0  0  0  0  0  0  0  0
    0.0471   -1.9603    0.9099 H   0  0  0  0  0  0  0  0  0  0  0  0
    1.7523   -1.6108    0.9303 H   0  0  0  0  0  0  0  0  0  0  0  0
    1.7481   -1.3864   -1.5760 H   0  0  0  0  0  0  0  0  0  0  0  0
   -0.0202   -1.5753   -1.5967 H   0  0  0  0  0  0  0  0  0  0  0  0
    1.0158   -2.9001   -1.0763 H   0  0  0  0  0  0  0  0  0  0  0  0
    2.9914    0.5744    1.6401 H   0  0  0  0  0  0  0  0  0  0  0  0
    3.9812    1.2993    0.3659 H   0  0  0  0  0  0  0  0  0  0  0  0
    3.4985   -0.3895    0.2153 H   0  0  0  0  0  0  0  0  0  0  0  0
   -3.8639   -0.5931    0.8982 H   0  0  0  0  0  0  0  0  0  0  0  0
   -3.3356   -0.3689   -0.7843 H   0  0  0  0  0  0  0  0  0  0  0  0
   -3.4600    1.0415    0.3279 H   0  0  0  0  0  0  0  0  0  0  0  0
  1  4  1  0  0  0  0
  1  8  1  0  0  0  0
  2  7  1  0  0  0  0
  2  9  1  0  0  0  0
  3  7  2  0  0  0  0
  4  5  1  0  0  0  0
  4  7  1  0  0  0  0
  4 10  1  0  0  0  0
  5  6  1  0  0  0  0
  5 11  1  0  0  0  0
  5 12  1  0  0  0  0
  6 13  1  0  0  0  0
  6 14  1  0  0  0  0
  6 15  1  0  0  0  0
  8 16  1  0  0  0  0
  8 17  1  0  0  0  0
  8 18  1  0  0  0  0
  9 19  1  0  0  0  0
  9 20  1  0  0  0  0
  9 21  1  0  0  0  0
M  END
> <PUBCHEM_COMPOUND_CID>
560572

> <PUBCHEM_CONFORMER_RMSD>
0.6

> <PUBCHEM_CONFORMER_DIVERSEORDER>
9
16
29
24
3
28
10
34
30
2
31
21
13
1
8
6
26
33
32
17
25
18
19
27
15
22
20
23
7
4
12
14
11
5

> <PUBCHEM_MMFF94_PARTIAL_CHARGES>
7
1 -0.46
2 -0.43
3 -0.57
4 0.29
7 0.66
8 0.23
9 0.28

> <PUBCHEM_EFFECTIVE_ROTOR_COUNT>
4

> <PUBCHEM_PHARMACOPHORE_FEATURES>
3
1 3 acceptor
1 6 hydrophobe
1 8 hydrophobe

> <PUBCHEM_HEAVY_ATOM_COUNT>
9

> <PUBCHEM_ATOM_DEF_STEREO_COUNT>
0

> <PUBCHEM_ATOM_UDEF_STEREO_COUNT>
1

> <PUBCHEM_BOND_DEF_STEREO_COUNT>
0

> <PUBCHEM_BOND_UDEF_STEREO_COUNT>
0

> <PUBCHEM_ISOTOPIC_ATOM_COUNT>
0

> <PUBCHEM_COMPONENT_COUNT>
1

> <PUBCHEM_CACTVS_TAUTO_COUNT>
1

> <PUBCHEM_CONFORMER_ID>
00088DBC00000009

> <PUBCHEM_MMFF94_ENERGY>
14.7768

> <PUBCHEM_FEATURE_SELFOVERLAP>
15.223

> <PUBCHEM_SHAPE_FINGERPRINT>
10219947 1 18260550060258677921
137420 1 9073512171296835578
14325111 11 18339080500908782552
20711978 78 18129378202895386495
21040471 1 18269560609920043768
23211744 25 17754202810927416330
23235685 24 18343581871601068240
23552449 11 18337674088061051771
24536 1 18054779594551871305
29004967 10 18340772541792383035
5084963 1 18261391174101366656
528862 383 18272368633536600598

> <PUBCHEM_SHAPE_MULTIPOLES>
177.33
4.02
1.56
0.96
1.16
0.74
-0.13
-1.06
0.79
-0.68
-0.44
-0.07
0.07
0.24

> <PUBCHEM_SHAPE_SELFOVERLAP>
313.584

> <PUBCHEM_SHAPE_VOLUME>
117.9

> <PUBCHEM_COORDINATE_TYPE>
2
5
10

$$$$
