565690
  -OEChem-11232108473D

 45 45  0     1  0  0  0  0  0999 V2000
   -0.4657   -0.1180   -0.0836 O   0  0  0  0  0  0  0  0  0  0  0  0
   -1.8225    0.7097   -1.7552 O   0  0  0  0  0  0  0  0  0  0  0  0
    1.8744   -0.7534   -0.2101 C   0  0  1  0  0  0  0  0  0  0  0  0
    0.7175    0.0172   -0.8693 C   0  0  2  0  0  0  0  0  0  0  0  0
    2.2769   -0.1138    1.1274 C   0  0  0  0  0  0  0  0  0  0  0  0
    1.4631    2.1457    0.3116 C   0  0  1  0  0  0  0  0  0  0  0  0
    1.0566    1.5029   -1.0241 C   0  0  0  0  0  0  0  0  0  0  0  0
    2.6131    1.3675    0.9635 C   0  0  0  0  0  0  0  0  0  0  0  0
    1.5271   -2.2292   -0.0054 C   0  0  0  0  0  0  0  0  0  0  0  0
    1.8517    3.6093    0.1077 C   0  0  0  0  0  0  0  0  0  0  0  0
    1.0922   -2.8631   -1.3236 C   0  0  0  0  0  0  0  0  0  0  0  0
    2.7155   -2.9803    0.5882 C   0  0  0  0  0  0  0  0  0  0  0  0
   -1.5775    0.5112   -0.5731 C   0  0  0  0  0  0  0  0  0  0  0  0
   -2.4441    0.9605    0.5840 C   0  0  0  0  0  0  0  0  0  0  0  0
   -3.5336   -0.0580    0.9538 C   0  0  0  0  0  0  0  0  0  0  0  0
   -4.4529   -0.3505   -0.2348 C   0  0  0  0  0  0  0  0  0  0  0  0
   -2.8917   -1.3576    1.4431 C   0  0  0  0  0  0  0  0  0  0  0  0
    2.7411   -0.6854   -0.8838 H   0  0  0  0  0  0  0  0  0  0  0  0
    0.5254   -0.3825   -1.8718 H   0  0  0  0  0  0  0  0  0  0  0  0
    3.1649   -0.5961    1.5480 H   0  0  0  0  0  0  0  0  0  0  0  0
    1.4704   -0.2255    1.8630 H   0  0  0  0  0  0  0  0  0  0  0  0
    0.6019    2.1233    0.9916 H   0  0  0  0  0  0  0  0  0  0  0  0
    0.2290    2.0748   -1.4558 H   0  0  0  0  0  0  0  0  0  0  0  0
    1.8901    1.5956   -1.7336 H   0  0  0  0  0  0  0  0  0  0  0  0
    2.8429    1.7961    1.9463 H   0  0  0  0  0  0  0  0  0  0  0  0
    3.5218    1.4656    0.3554 H   0  0  0  0  0  0  0  0  0  0  0  0
    0.6924   -2.3274    0.7010 H   0  0  0  0  0  0  0  0  0  0  0  0
    1.0194    4.1753   -0.3240 H   0  0  0  0  0  0  0  0  0  0  0  0
    2.1153    4.0773    1.0620 H   0  0  0  0  0  0  0  0  0  0  0  0
    2.7109    3.7040   -0.5647 H   0  0  0  0  0  0  0  0  0  0  0  0
    1.8199   -2.6762   -2.1208 H   0  0  0  0  0  0  0  0  0  0  0  0
    0.9937   -3.9493   -1.2151 H   0  0  0  0  0  0  0  0  0  0  0  0
    0.1131   -2.5000   -1.6505 H   0  0  0  0  0  0  0  0  0  0  0  0
    3.6334   -2.7999    0.0183 H   0  0  0  0  0  0  0  0  0  0  0  0
    2.5307   -4.0607    0.5819 H   0  0  0  0  0  0  0  0  0  0  0  0
    2.8932   -2.7089    1.6329 H   0  0  0  0  0  0  0  0  0  0  0  0
   -1.8077    1.1816    1.4495 H   0  0  0  0  0  0  0  0  0  0  0  0
   -2.8986    1.9171    0.2984 H   0  0  0  0  0  0  0  0  0  0  0  0
   -4.1349    0.3651    1.7676 H   0  0  0  0  0  0  0  0  0  0  0  0
   -3.9307   -0.8689   -1.0454 H   0  0  0  0  0  0  0  0  0  0  0  0
   -5.2862   -0.9891    0.0785 H   0  0  0  0  0  0  0  0  0  0  0  0
   -4.8769    0.5760   -0.6358 H   0  0  0  0  0  0  0  0  0  0  0  0
   -2.3569   -1.8830    0.6452 H   0  0  0  0  0  0  0  0  0  0  0  0
   -2.1884   -1.1647    2.2601 H   0  0  0  0  0  0  0  0  0  0  0  0
   -3.6605   -2.0394    1.8233 H   0  0  0  0  0  0  0  0  0  0  0  0
  1  4  1  0  0  0  0
  1 13  1  0  0  0  0
  2 13  2  0  0  0  0
  3  4  1  0  0  0  0
  3  5  1  0  0  0  0
  3  9  1  0  0  0  0
  3 18  1  0  0  0  0
  4  7  1  0  0  0  0
  4 19  1  0  0  0  0
  5  8  1  0  0  0  0
  5 20  1  0  0  0  0
  5 21  1  0  0  0  0
  6  7  1  0  0  0  0
  6  8  1  0  0  0  0
  6 10  1  0  0  0  0
  6 22  1  0  0  0  0
  7 23  1  0  0  0  0
  7 24  1  0  0  0  0
  8 25  1  0  0  0  0
  8 26  1  0  0  0  0
  9 11  1  0  0  0  0
  9 12  1  0  0  0  0
  9 27  1  0  0  0  0
 10 28  1  0  0  0  0
 10 29  1  0  0  0  0
 10 30  1  0  0  0  0
 11 31  1  0  0  0  0
 11 32  1  0  0  0  0
 11 33  1  0  0  0  0
 12 34  1  0  0  0  0
 12 35  1  0  0  0  0
 12 36  1  0  0  0  0
 13 14  1  0  0  0  0
 14 15  1  0  0  0  0
 14 37  1  0  0  0  0
 14 38  1  0  0  0  0
 15 16  1  0  0  0  0
 15 17  1  0  0  0  0
 15 39  1  0  0  0  0
 16 40  1  0  0  0  0
 16 41  1  0  0  0  0
 16 42  1  0  0  0  0
 17 43  1  0  0  0  0
 17 44  1  0  0  0  0
 17 45  1  0  0  0  0
M  END
> <PUBCHEM_COMPOUND_CID>
565690

> <PUBCHEM_CONFORMER_RMSD>
0.8

> <PUBCHEM_CONFORMER_DIVERSEORDER>
1
82
149
124
133
21
55
144
119
97
117
46
132
79
23
48
91
122
98
137
78
136
123
108
102
52
77
47
114
116
36
39
112
105
146
35
120
101
129
111
73
29
145
88
17
45
65
38
141
107
95
15
85
11
50
135
104
110
74
9
115
130
66
134
121
68
148
72
59
43
54
40
93
57
67
84
143
33
126
99
41
128
10
103
113
69
18
86
140
16
87
27
127
37
142
20
22
53
56
83
75
118
81
71
32
109
25
4
106
42
28
13
14
125
96
139
5
100
94
58
76
64
3
8
147
131
92
90
63
138
51
2
34
62
6
80
19
49
61
89
12
26
30
44
31
70
60
7
24

> <PUBCHEM_MMFF94_PARTIAL_CHARGES>
5
1 -0.43
13 0.66
14 0.06
2 -0.57
4 0.28

> <PUBCHEM_EFFECTIVE_ROTOR_COUNT>
6.2

> <PUBCHEM_PHARMACOPHORE_FEATURES>
4
1 2 acceptor
3 15 16 17 hydrophobe
3 9 11 12 hydrophobe
6 3 4 5 6 7 8 rings

> <PUBCHEM_HEAVY_ATOM_COUNT>
17

> <PUBCHEM_ATOM_DEF_STEREO_COUNT>
0

> <PUBCHEM_ATOM_UDEF_STEREO_COUNT>
3

> <PUBCHEM_BOND_DEF_STEREO_COUNT>
0

> <PUBCHEM_BOND_UDEF_STEREO_COUNT>
0

> <PUBCHEM_ISOTOPIC_ATOM_COUNT>
0

> <PUBCHEM_COMPONENT_COUNT>
1

> <PUBCHEM_CACTVS_TAUTO_COUNT>
1

> <PUBCHEM_CONFORMER_ID>
0008A1BA00000001

> <PUBCHEM_MMFF94_ENERGY>
31.3035

> <PUBCHEM_FEATURE_SELFOVERLAP>
20.297

> <PUBCHEM_SHAPE_FINGERPRINT>
10366900 7 18335708273140100513
11471102 22 18339633464999839650
11582403 64 15805718853278976277
11715629 250 10663813040924046315
12202030 40 17896037646241540223
12633257 1 18260829306379386897
13533116 47 18409456882318877939
14251764 30 17772761463830795262
14289901 80 18272373109504089209
14787075 74 17123118673649541993
14817 1 12861472133005270252
15309172 13 18122626312432464521
15422964 175 17981048513773348519
16945 1 18339345431798140964
17841504 4 18338521828800654313
19049666 15 18116704119662058093
20559304 39 18341902869937400529
20600515 1 17318140863433814452
20645477 70 18408880759384306911
21452121 199 18190182274301832534
21524375 3 17914617404234103748
21731228 192 18051694639934263656
2255824 54 18342746238184037724
23526113 38 17900511537643544973
23558518 356 17474945906163966716
23559900 14 18411136918505271713
2748010 2 18052233134644620788
3060560 45 18339647849098716700
31174 14 18408605851080106901
3729539 64 18120687775571497828
3797600 57 17201376284717784027
495365 180 18340760555071793089
576247 118 17909281190899871550
7364860 26 18412271639699953126
81228 2 17331676847877406212
8272917 22 18342464746544493841
9709674 26 18334859429063342923

> <PUBCHEM_SHAPE_MULTIPOLES>
338.11
5.8
3.52
1.34
7.21
0.04
-0.14
0.79
1.67
-4.23
-0.11
0.27
0.22
0.48

> <PUBCHEM_SHAPE_SELFOVERLAP>
660.849

> <PUBCHEM_SHAPE_VOLUME>
203.6

> <PUBCHEM_COORDINATE_TYPE>
2
5
10

$$$$
