56844159
  -OEChem-11232108573D

 27 26  0     1  0  0  0  0  0999 V2000
   -1.6494    0.7417   -0.4075 S   0  0  0  0  0  0  0  0  0  0  0  0
    0.8196    2.1819   -1.2621 O   0  5  0  0  0  0  0  0  0  0  0  0
    0.8972    2.7248    0.9546 O   0  0  0  0  0  0  0  0  0  0  0  0
    0.7095   -0.6293   -0.1863 C   0  0  0  0  0  0  0  0  0  0  0  0
    2.1685   -0.7007    0.2808 C   0  0  0  0  0  0  0  0  0  0  0  0
    0.0106    0.6207    0.3461 C   0  0  1  0  0  0  0  0  0  0  0  0
    2.8833   -1.9136   -0.3153 C   0  0  0  0  0  0  0  0  0  0  0  0
    4.3220   -2.0050    0.1677 C   0  0  0  0  0  0  0  0  0  0  0  0
    0.6422    1.9701   -0.0292 C   0  0  0  0  0  0  0  0  0  0  0  0
   -2.4660   -0.5322    0.5782 C   0  0  0  0  0  0  0  0  0  0  0  0
   -3.8974   -0.6630    0.1674 C   0  0  0  0  0  0  0  0  0  0  0  0
   -4.4402   -1.7953   -0.2943 C   0  0  0  0  0  0  0  0  0  0  0  0
    0.7003   -0.6353   -1.2844 H   0  0  0  0  0  0  0  0  0  0  0  0
    0.1972   -1.5386    0.1459 H   0  0  0  0  0  0  0  0  0  0  0  0
    2.7069    0.2075   -0.0141 H   0  0  0  0  0  0  0  0  0  0  0  0
    2.1981   -0.7531    1.3760 H   0  0  0  0  0  0  0  0  0  0  0  0
   -0.0900    0.5640    1.4363 H   0  0  0  0  0  0  0  0  0  0  0  0
    2.8741   -1.8512   -1.4097 H   0  0  0  0  0  0  0  0  0  0  0  0
    2.3529   -2.8320   -0.0379 H   0  0  0  0  0  0  0  0  0  0  0  0
    4.3647   -2.1017    1.2572 H   0  0  0  0  0  0  0  0  0  0  0  0
    4.8141   -2.8790   -0.2704 H   0  0  0  0  0  0  0  0  0  0  0  0
    4.8900   -1.1149   -0.1211 H   0  0  0  0  0  0  0  0  0  0  0  0
   -1.9505   -1.4893    0.4625 H   0  0  0  0  0  0  0  0  0  0  0  0
   -2.4279   -0.2499    1.6353 H   0  0  0  0  0  0  0  0  0  0  0  0
   -4.5394    0.2079    0.2785 H   0  0  0  0  0  0  0  0  0  0  0  0
   -5.4904   -1.8309   -0.5630 H   0  0  0  0  0  0  0  0  0  0  0  0
   -3.8537   -2.6996   -0.4132 H   0  0  0  0  0  0  0  0  0  0  0  0
  1  6  1  0  0  0  0
  1 10  1  0  0  0  0
  2  9  1  0  0  0  0
  3  9  2  0  0  0  0
  4  5  1  0  0  0  0
  4  6  1  0  0  0  0
  4 13  1  0  0  0  0
  4 14  1  0  0  0  0
  5  7  1  0  0  0  0
  5 15  1  0  0  0  0
  5 16  1  0  0  0  0
  6  9  1  0  0  0  0
  6 17  1  0  0  0  0
  7  8  1  0  0  0  0
  7 18  1  0  0  0  0
  7 19  1  0  0  0  0
  8 20  1  0  0  0  0
  8 21  1  0  0  0  0
  8 22  1  0  0  0  0
 10 11  1  0  0  0  0
 10 23  1  0  0  0  0
 10 24  1  0  0  0  0
 11 12  2  0  0  0  0
 11 25  1  0  0  0  0
 12 26  1  0  0  0  0
 12 27  1  0  0  0  0
M  CHG  1   2  -1
M  END
> <PUBCHEM_COMPOUND_CID>
56844159

> <PUBCHEM_CONFORMER_RMSD>
0.8

> <PUBCHEM_CONFORMER_DIVERSEORDER>
1
123
40
90
110
79
133
94
73
72
65
122
97
26
96
11
69
45
12
88
138
137
124
42
2
58
59
25
82
105
126
63
33
136
118
101
115
28
64
83
75
47
48
134
41
6
100
39
35
127
53
38
77
121
21
20
9
116
106
93
95
80
104
16
99
87
102
36
56
37
130
29
125
119
66
52
60
7
49
89
57
129
67
113
51
117
128
111
76
55
62
27
91
23
13
109
22
3
135
78
8
108
43
5
31
30
34
114
54
74
19
71
81
50
61
112
24
120
17
132
4
46
68
85
44
92
14
86
98
15
70
84
103
107
10
32
131
18

> <PUBCHEM_MMFF94_PARTIAL_CHARGES>
11
1 -0.46
10 0.37
11 -0.29
12 -0.3
2 -0.9
25 0.15
26 0.15
27 0.15
3 -0.9
6 0.12
9 0.91

> <PUBCHEM_EFFECTIVE_ROTOR_COUNT>
7

> <PUBCHEM_PHARMACOPHORE_FEATURES>
5
1 12 hydrophobe
1 2 acceptor
1 3 acceptor
1 8 hydrophobe
3 2 3 9 anion

> <PUBCHEM_HEAVY_ATOM_COUNT>
12

> <PUBCHEM_ATOM_DEF_STEREO_COUNT>
0

> <PUBCHEM_ATOM_UDEF_STEREO_COUNT>
1

> <PUBCHEM_BOND_DEF_STEREO_COUNT>
0

> <PUBCHEM_BOND_UDEF_STEREO_COUNT>
0

> <PUBCHEM_ISOTOPIC_ATOM_COUNT>
0

> <PUBCHEM_COMPONENT_COUNT>
1

> <PUBCHEM_CACTVS_TAUTO_COUNT>
1

> <PUBCHEM_CONFORMER_ID>
03635F7F00000001

> <PUBCHEM_MMFF94_ENERGY>
12.7424

> <PUBCHEM_FEATURE_SELFOVERLAP>
25.427

> <PUBCHEM_SHAPE_FINGERPRINT>
11806522 49 18411136973791343650
12032990 46 18340205193951108710
12841375 25 18408885109722012431
14251717 144 18337953505774794747
15477762 27 18337672017955380211
17841504 4 18413108381303000753
18186145 218 11314601848474619910
20388580 30 18335707151805437878
20645477 70 18263354958194090991
20671657 1 18197783399868710871
20671657 53 18408608063030657319
20708731 107 18262804093555493013
20711985 327 18343590615885470371
20871998 22 18410569582878661632
20871999 31 18041559122690235703
21061003 4 18340767048698100835
21296965 67 18410010992417259378
21728266 224 17751625564815914506
23402539 116 18263078817208059302
23532345 42 18411128130896935994
23532345 88 18336823225338764863
23557571 272 18125447419210040518
5493415 88 18410007715341336293
58554843 112 18124036990440871283
7364860 26 18269555107761041017
81228 2 17904501613843016058
81539 233 17971753538798278972

> <PUBCHEM_SHAPE_MULTIPOLES>
239.07
7.31
2.84
0.85
2.35
1.5
0.06
-8.1
-0.05
-1.44
0.06
-0.02
0.32
-0.03

> <PUBCHEM_SHAPE_SELFOVERLAP>
430.647

> <PUBCHEM_SHAPE_VOLUME>
153.9

> <PUBCHEM_COORDINATE_TYPE>
2
5
10

$$$$
