56843582
  -OEChem-11232109163D

 39 38  0     1  0  0  0  0  0999 V2000
    0.9432    0.2162    0.1652 O   0  0  0  0  0  0  0  0  0  0  0  0
    3.1006   -0.5384    0.1861 O   0  0  0  0  0  0  0  0  0  0  0  0
    2.6551    1.7175   -0.1611 N   0  0  0  0  0  0  0  0  0  0  0  0
    0.4923   -1.1284    0.4057 C   0  0  2  0  0  0  0  0  0  0  0  0
   -1.0545   -1.0847    0.4422 C   0  0  0  0  0  0  0  0  0  0  0  0
   -1.7155   -0.4263   -0.7736 C   0  0  0  0  0  0  0  0  0  0  0  0
    1.0669   -1.5147    1.7743 C   0  0  0  0  0  0  0  0  0  0  0  0
    0.9830   -1.9712   -0.7532 C   0  0  0  0  0  0  0  0  0  0  0  0
   -3.2094   -0.3695   -0.6091 C   0  0  0  0  0  0  0  0  0  0  0  0
   -3.9355    0.6125   -0.0422 C   0  0  0  0  0  0  0  0  0  0  0  0
    2.2970    0.3857    0.0736 C   0  0  0  0  0  0  0  0  0  0  0  0
    1.3617   -3.2548   -0.7247 C   0  0  0  0  0  0  0  0  0  0  0  0
   -5.4320    0.6100    0.0924 C   0  0  0  0  0  0  0  0  0  0  0  0
   -3.2616    1.8419    0.5057 C   0  0  0  0  0  0  0  0  0  0  0  0
    1.6602    2.7730   -0.2860 C   0  0  0  0  0  0  0  0  0  0  0  0
    4.0484    2.1312   -0.2953 C   0  0  0  0  0  0  0  0  0  0  0  0
   -1.4490   -2.1016    0.5734 H   0  0  0  0  0  0  0  0  0  0  0  0
   -1.3551   -0.5192    1.3355 H   0  0  0  0  0  0  0  0  0  0  0  0
   -1.3041    0.5698   -0.9652 H   0  0  0  0  0  0  0  0  0  0  0  0
   -1.5031   -1.0085   -1.6784 H   0  0  0  0  0  0  0  0  0  0  0  0
    0.9792   -0.6879    2.4894 H   0  0  0  0  0  0  0  0  0  0  0  0
    0.5158   -2.3678    2.1893 H   0  0  0  0  0  0  0  0  0  0  0  0
    2.1162   -1.8221    1.7626 H   0  0  0  0  0  0  0  0  0  0  0  0
    0.9823   -1.4900   -1.7312 H   0  0  0  0  0  0  0  0  0  0  0  0
   -3.7432   -1.2418   -0.9834 H   0  0  0  0  0  0  0  0  0  0  0  0
    1.6722   -3.7552   -1.6355 H   0  0  0  0  0  0  0  0  0  0  0  0
    1.3652   -3.8289    0.1946 H   0  0  0  0  0  0  0  0  0  0  0  0
   -5.8633    1.4714   -0.4276 H   0  0  0  0  0  0  0  0  0  0  0  0
   -5.8737   -0.2955   -0.3364 H   0  0  0  0  0  0  0  0  0  0  0  0
   -5.7209    0.6560    1.1472 H   0  0  0  0  0  0  0  0  0  0  0  0
   -2.1723    1.7834    0.5523 H   0  0  0  0  0  0  0  0  0  0  0  0
   -3.6042    2.0264    1.5302 H   0  0  0  0  0  0  0  0  0  0  0  0
   -3.5250    2.7139   -0.1022 H   0  0  0  0  0  0  0  0  0  0  0  0
    1.8557    3.5275    0.4820 H   0  0  0  0  0  0  0  0  0  0  0  0
    0.6340    2.4193   -0.1713 H   0  0  0  0  0  0  0  0  0  0  0  0
    1.7622    3.2308   -1.2746 H   0  0  0  0  0  0  0  0  0  0  0  0
    4.1894    2.5804   -1.2824 H   0  0  0  0  0  0  0  0  0  0  0  0
    4.7236    1.2784   -0.1893 H   0  0  0  0  0  0  0  0  0  0  0  0
    4.2744    2.8668    0.4818 H   0  0  0  0  0  0  0  0  0  0  0  0
  1  4  1  0  0  0  0
  1 11  1  0  0  0  0
  2 11  2  0  0  0  0
  3 11  1  0  0  0  0
  3 15  1  0  0  0  0
  3 16  1  0  0  0  0
  4  5  1  0  0  0  0
  4  7  1  0  0  0  0
  4  8  1  0  0  0  0
  5  6  1  0  0  0  0
  5 17  1  0  0  0  0
  5 18  1  0  0  0  0
  6  9  1  0  0  0  0
  6 19  1  0  0  0  0
  6 20  1  0  0  0  0
  7 21  1  0  0  0  0
  7 22  1  0  0  0  0
  7 23  1  0  0  0  0
  8 12  2  0  0  0  0
  8 24  1  0  0  0  0
  9 10  2  0  0  0  0
  9 25  1  0  0  0  0
 10 13  1  0  0  0  0
 10 14  1  0  0  0  0
 12 26  1  0  0  0  0
 12 27  1  0  0  0  0
 13 28  1  0  0  0  0
 13 29  1  0  0  0  0
 13 30  1  0  0  0  0
 14 31  1  0  0  0  0
 14 32  1  0  0  0  0
 14 33  1  0  0  0  0
 15 34  1  0  0  0  0
 15 35  1  0  0  0  0
 15 36  1  0  0  0  0
 16 37  1  0  0  0  0
 16 38  1  0  0  0  0
 16 39  1  0  0  0  0
M  END
> <PUBCHEM_COMPOUND_CID>
56843582

> <PUBCHEM_CONFORMER_RMSD>
0.8

> <PUBCHEM_CONFORMER_DIVERSEORDER>
2
104
107
38
74
119
221
154
67
62
4
39
97
18
124
144
76
105
165
159
44
177
66
69
54
35
115
111
10
155
217
137
209
90
13
110
45
174
25
178
84
148
147
14
72
85
71
12
214
24
17
36
207
122
169
200
116
213
9
78
121
193
19
57
108
203
160
199
20
211
30
48
31
186
192
158
109
27
88
7
205
171
61
51
157
65
140
41
29
135
184
81
189
5
15
206
56
163
21
63
212
166
123
168
138
92
219
117
220
113
89
132
118
91
101
216
136
215
86
196
187
50
42
8
134
156
194
139
3
83
43
82
145
79
201
77
95
73
114
182
33
6
100
198
152
131
70
195
167
146
179
161
130
142
190
150
164
23
11
175
58
52
75
22
16
59
149
53
102
218
47
153
28
133
126
34
40
1
32
80
60
68
208
26
143
141
37
98
180
181
96
93
183
112
55
106
162
120
204
202
99
127
87
125
172
128
188
46
197
64
49
210
151
173
176
129
94
103
185
191
170

> <PUBCHEM_MMFF94_PARTIAL_CHARGES>
18
1 -0.43
10 -0.28
11 0.78
12 -0.3
13 0.14
14 0.14
15 0.3
16 0.3
2 -0.57
24 0.15
25 0.15
26 0.15
27 0.15
3 -0.66
4 0.42
6 0.14
8 -0.29
9 -0.29

> <PUBCHEM_EFFECTIVE_ROTOR_COUNT>
7

> <PUBCHEM_PHARMACOPHORE_FEATURES>
3
1 12 hydrophobe
1 2 acceptor
3 10 13 14 hydrophobe

> <PUBCHEM_HEAVY_ATOM_COUNT>
16

> <PUBCHEM_ATOM_DEF_STEREO_COUNT>
0

> <PUBCHEM_ATOM_UDEF_STEREO_COUNT>
1

> <PUBCHEM_BOND_DEF_STEREO_COUNT>
0

> <PUBCHEM_BOND_UDEF_STEREO_COUNT>
0

> <PUBCHEM_ISOTOPIC_ATOM_COUNT>
0

> <PUBCHEM_COMPONENT_COUNT>
1

> <PUBCHEM_CACTVS_TAUTO_COUNT>
1

> <PUBCHEM_CONFORMER_ID>
03635D3E00000002

> <PUBCHEM_MMFF94_ENERGY>
34.2507

> <PUBCHEM_FEATURE_SELFOVERLAP>
15.223

> <PUBCHEM_SHAPE_FINGERPRINT>
10382601 240 18114180809027087840
10465860 228 18270685264159730987
10980938 120 18411697660618857217
11833330 49 17257377345430837102
122479 349 18044376264922969824
12346645 44 18409444821306911909
13009979 54 17342948040252640667
13464514 151 18337402547422623062
14123255 52 18340768242693909773
14415576 193 18412826880303187767
14648413 74 18339367366164771811
15442244 35 17910959045785931611
15775835 57 18334856177097821052
170605 34 18335138683130270891
1741750 31 18195523920806416320
18186145 218 18408599283806242164
20671657 1 18340210691440611215
20671657 53 17769668498444747134
21041028 32 17975967670599027942
21503847 285 18194973937559806297
21524375 3 18189610721228009660
21652331 79 18408885140240840965
2255824 54 18269835307507699799
231179 274 18041271097888346533
23558518 356 17756984884846825702
23559900 14 18198339559932829751
25 1 18408885169835665396
298252 57 18269272529357705946
3060560 45 18343302544055498830
3286 77 17387407935683672723
474 4 18334294309724143029
7364860 26 18340770342806232647
81539 233 18334856121305203951

> <PUBCHEM_SHAPE_MULTIPOLES>
312.55
7.93
3.14
1
8.95
0.23
0.29
-5.33
-0.34
-3.19
-0.51
-0.15
0.49
-0.46

> <PUBCHEM_SHAPE_SELFOVERLAP>
598.682

> <PUBCHEM_SHAPE_VOLUME>
192.1

> <PUBCHEM_COORDINATE_TYPE>
2
5
10

$$$$
