56843050
  -OEChem-11232109223D

 31 31  0     1  0  0  0  0  0999 V2000
   -0.9378    0.9660   -1.3866 S   0  0  0  0  0  0  0  0  0  0  0  0
    0.1274   -1.2389   -0.1895 N   0  0  0  0  0  0  0  0  0  0  0  0
    0.5078   -0.0127   -0.9093 C   0  0  2  0  0  0  0  0  0  0  0  0
    1.4281    0.8092   -0.0168 C   0  0  0  0  0  0  0  0  0  0  0  0
   -2.0330   -0.0781   -0.4021 C   0  0  1  0  0  0  0  0  0  0  0  0
    2.7023    0.0596    0.4085 C   0  0  0  0  0  0  0  0  0  0  0  0
   -1.1534   -1.2436    0.0211 C   0  0  0  0  0  0  0  0  0  0  0  0
   -2.5566    0.6871    0.8019 C   0  0  0  0  0  0  0  0  0  0  0  0
    3.5314    0.9378    1.3487 C   0  0  0  0  0  0  0  0  0  0  0  0
    3.5551   -0.3656   -0.7876 C   0  0  0  0  0  0  0  0  0  0  0  0
   -1.7852   -2.4103    0.7272 C   0  0  0  0  0  0  0  0  0  0  0  0
   -3.3862    1.8894    0.3845 C   0  0  0  0  0  0  0  0  0  0  0  0
    1.0141   -0.2917   -1.8379 H   0  0  0  0  0  0  0  0  0  0  0  0
    1.7173    1.7342   -0.5342 H   0  0  0  0  0  0  0  0  0  0  0  0
    0.8905    1.1120    0.8927 H   0  0  0  0  0  0  0  0  0  0  0  0
   -2.8492   -0.4532   -1.0275 H   0  0  0  0  0  0  0  0  0  0  0  0
    2.4256   -0.8422    0.9684 H   0  0  0  0  0  0  0  0  0  0  0  0
   -1.7425    1.0051    1.4656 H   0  0  0  0  0  0  0  0  0  0  0  0
   -3.1912    0.0239    1.4027 H   0  0  0  0  0  0  0  0  0  0  0  0
    3.8595    1.8560    0.8497 H   0  0  0  0  0  0  0  0  0  0  0  0
    4.4227    0.4041    1.6956 H   0  0  0  0  0  0  0  0  0  0  0  0
    2.9491    1.2208    2.2320 H   0  0  0  0  0  0  0  0  0  0  0  0
    3.7917    0.4887   -1.4309 H   0  0  0  0  0  0  0  0  0  0  0  0
    3.0480   -1.1220   -1.3937 H   0  0  0  0  0  0  0  0  0  0  0  0
    4.5006   -0.8062   -0.4525 H   0  0  0  0  0  0  0  0  0  0  0  0
   -2.6999   -2.7037    0.2058 H   0  0  0  0  0  0  0  0  0  0  0  0
   -2.0294   -2.1255    1.7537 H   0  0  0  0  0  0  0  0  0  0  0  0
   -1.0983   -3.2609    0.7483 H   0  0  0  0  0  0  0  0  0  0  0  0
   -2.7792    2.6867   -0.0539 H   0  0  0  0  0  0  0  0  0  0  0  0
   -3.8832    2.3158    1.2627 H   0  0  0  0  0  0  0  0  0  0  0  0
   -4.1652    1.6074   -0.3316 H   0  0  0  0  0  0  0  0  0  0  0  0
  1  3  1  0  0  0  0
  1  5  1  0  0  0  0
  2  3  1  0  0  0  0
  2  7  2  0  0  0  0
  3  4  1  0  0  0  0
  3 13  1  0  0  0  0
  4  6  1  0  0  0  0
  4 14  1  0  0  0  0
  4 15  1  0  0  0  0
  5  7  1  0  0  0  0
  5  8  1  0  0  0  0
  5 16  1  0  0  0  0
  6  9  1  0  0  0  0
  6 10  1  0  0  0  0
  6 17  1  0  0  0  0
  7 11  1  0  0  0  0
  8 12  1  0  0  0  0
  8 18  1  0  0  0  0
  8 19  1  0  0  0  0
  9 20  1  0  0  0  0
  9 21  1  0  0  0  0
  9 22  1  0  0  0  0
 10 23  1  0  0  0  0
 10 24  1  0  0  0  0
 10 25  1  0  0  0  0
 11 26  1  0  0  0  0
 11 27  1  0  0  0  0
 11 28  1  0  0  0  0
 12 29  1  0  0  0  0
 12 30  1  0  0  0  0
 12 31  1  0  0  0  0
M  END
> <PUBCHEM_COMPOUND_CID>
56843050

> <PUBCHEM_CONFORMER_RMSD>
0.6

> <PUBCHEM_CONFORMER_DIVERSEORDER>
2
27
28
25
14
24
26
18
19
16
17
30
23
29
5
10
11
3
1
12
9
22
15
13
20
6
21
7
4
8

> <PUBCHEM_MMFF94_PARTIAL_CHARGES>
6
1 -0.46
11 0.06
2 -0.7
3 0.48
5 0.29
7 0.33

> <PUBCHEM_EFFECTIVE_ROTOR_COUNT>
3.6

> <PUBCHEM_PHARMACOPHORE_FEATURES>
4
1 12 hydrophobe
1 2 acceptor
3 6 9 10 hydrophobe
5 1 2 3 5 7 rings

> <PUBCHEM_HEAVY_ATOM_COUNT>
12

> <PUBCHEM_ATOM_DEF_STEREO_COUNT>
0

> <PUBCHEM_ATOM_UDEF_STEREO_COUNT>
2

> <PUBCHEM_BOND_DEF_STEREO_COUNT>
0

> <PUBCHEM_BOND_UDEF_STEREO_COUNT>
0

> <PUBCHEM_ISOTOPIC_ATOM_COUNT>
0

> <PUBCHEM_COMPONENT_COUNT>
1

> <PUBCHEM_CACTVS_TAUTO_COUNT>
1

> <PUBCHEM_CONFORMER_ID>
03635B2A00000002

> <PUBCHEM_MMFF94_ENERGY>
16.8726

> <PUBCHEM_FEATURE_SELFOVERLAP>
20.297

> <PUBCHEM_SHAPE_FINGERPRINT>
122479 349 18202844348585581465
12251169 10 18261395580447681353
124424 183 17775290417814563948
12500047 106 18412266121009999086
12932764 1 17312817204172827052
13024252 1 14129323084187129903
13380535 21 18334301928975176470
13571099 52 17989204824082031941
13764800 53 18272374204019279112
15775835 57 18261394407868738745
16945 1 18040990735202540660
17834069 15 18411142398429899498
18186145 218 18130503033413712756
18522851 12 17095243631386871538
20112054 13 18411976932019168064
20524608 308 18343305889803425519
20645464 45 18342164596907399438
20653085 51 17132114632341872964
20715346 28 17988085603266039934
21524375 3 18199470974329344821
23382010 3 14260479419617799877
23402539 116 18270107024645248599
23419403 2 17402294537123320821
23500284 214 18202567271781807249
27216 239 17986656276593881040
305870 269 18191871111271679617
3086196 2 18192705867903757523
3248919 1 18338508755104841300
369184 2 17131832122446842662
81228 2 18189329246288624955

> <PUBCHEM_SHAPE_MULTIPOLES>
245.82
5.84
1.9
1.22
3.57
0.84
0.05
-2
-1.69
-1.83
-0.42
0.35
-0.28
0.44

> <PUBCHEM_SHAPE_SELFOVERLAP>
460.584

> <PUBCHEM_SHAPE_VOLUME>
155.7

> <PUBCHEM_COORDINATE_TYPE>
2
5
10

$$$$
