569214
  -OEChem-11232108563D

 30 30  0     1  0  0  0  0  0999 V2000
    1.0885    1.1664    0.3620 O   0  0  0  0  0  0  0  0  0  0  0  0
    1.0908   -0.3563   -1.3704 O   0  0  0  0  0  0  0  0  0  0  0  0
   -0.1901    1.6484   -0.0632 C   0  0  1  0  0  0  0  0  0  0  0  0
    2.9589   -0.2568    0.1877 C   0  0  0  0  0  0  0  0  0  0  0  0
   -1.1891    0.5169   -0.0188 C   0  0  0  0  0  0  0  0  0  0  0  0
    1.6156    0.1540   -0.3892 C   0  0  0  0  0  0  0  0  0  0  0  0
   -0.6104    2.8187    0.8193 C   0  0  0  0  0  0  0  0  0  0  0  0
    2.7574   -1.3430    1.2377 C   0  0  0  0  0  0  0  0  0  0  0  0
    3.8999   -0.7318   -0.9164 C   0  0  0  0  0  0  0  0  0  0  0  0
   -1.0438   -0.4800    0.9326 C   0  0  0  0  0  0  0  0  0  0  0  0
   -2.2330    0.4967   -0.9300 C   0  0  0  0  0  0  0  0  0  0  0  0
   -1.9666   -1.5252    0.9738 C   0  0  0  0  0  0  0  0  0  0  0  0
   -3.1558   -0.5485   -0.8886 C   0  0  0  0  0  0  0  0  0  0  0  0
   -3.0226   -1.5594    0.0633 C   0  0  0  0  0  0  0  0  0  0  0  0
   -0.0806    2.0165   -1.0923 H   0  0  0  0  0  0  0  0  0  0  0  0
    3.4174    0.6241    0.6543 H   0  0  0  0  0  0  0  0  0  0  0  0
   -0.6820    2.5152    1.8701 H   0  0  0  0  0  0  0  0  0  0  0  0
   -1.5780    3.2285    0.5126 H   0  0  0  0  0  0  0  0  0  0  0  0
    0.1387    3.6165    0.7739 H   0  0  0  0  0  0  0  0  0  0  0  0
    3.7162   -1.6661    1.6561 H   0  0  0  0  0  0  0  0  0  0  0  0
    2.2552   -2.2194    0.8132 H   0  0  0  0  0  0  0  0  0  0  0  0
    2.1382   -0.9764    2.0631 H   0  0  0  0  0  0  0  0  0  0  0  0
    4.8901   -0.9645   -0.5109 H   0  0  0  0  0  0  0  0  0  0  0  0
    4.0198    0.0414   -1.6831 H   0  0  0  0  0  0  0  0  0  0  0  0
    3.5158   -1.6306   -1.4113 H   0  0  0  0  0  0  0  0  0  0  0  0
   -0.2524   -0.4624    1.6751 H   0  0  0  0  0  0  0  0  0  0  0  0
   -2.3456    1.2803   -1.6737 H   0  0  0  0  0  0  0  0  0  0  0  0
   -1.8673   -2.3084    1.7198 H   0  0  0  0  0  0  0  0  0  0  0  0
   -3.9786   -0.5749   -1.5971 H   0  0  0  0  0  0  0  0  0  0  0  0
   -3.7422   -2.3721    0.0967 H   0  0  0  0  0  0  0  0  0  0  0  0
  1  3  1  0  0  0  0
  1  6  1  0  0  0  0
  2  6  2  0  0  0  0
  3  5  1  0  0  0  0
  3  7  1  0  0  0  0
  3 15  1  0  0  0  0
  4  6  1  0  0  0  0
  4  8  1  0  0  0  0
  4  9  1  0  0  0  0
  4 16  1  0  0  0  0
  5 10  2  0  0  0  0
  5 11  1  0  0  0  0
  7 17  1  0  0  0  0
  7 18  1  0  0  0  0
  7 19  1  0  0  0  0
  8 20  1  0  0  0  0
  8 21  1  0  0  0  0
  8 22  1  0  0  0  0
  9 23  1  0  0  0  0
  9 24  1  0  0  0  0
  9 25  1  0  0  0  0
 10 12  1  0  0  0  0
 10 26  1  0  0  0  0
 11 13  2  0  0  0  0
 11 27  1  0  0  0  0
 12 14  2  0  0  0  0
 12 28  1  0  0  0  0
 13 14  1  0  0  0  0
 13 29  1  0  0  0  0
 14 30  1  0  0  0  0
M  END
> <PUBCHEM_COMPOUND_CID>
569214

> <PUBCHEM_CONFORMER_RMSD>
0.6

> <PUBCHEM_CONFORMER_DIVERSEORDER>
7
46
6
49
4
38
44
30
17
3
42
45
22
5
29
48
18
35
9
20
13
37
32
26
1
47
10
31
12
2
15
41
34
11
39
25
28
23
14
40
43
36
19
27
33
16
21
24
8

> <PUBCHEM_MMFF94_PARTIAL_CHARGES>
16
1 -0.43
10 -0.15
11 -0.15
12 -0.15
13 -0.15
14 -0.15
2 -0.57
26 0.15
27 0.15
28 0.15
29 0.15
3 0.42
30 0.15
4 0.06
5 -0.14
6 0.66

> <PUBCHEM_EFFECTIVE_ROTOR_COUNT>
4

> <PUBCHEM_PHARMACOPHORE_FEATURES>
3
1 2 acceptor
3 4 8 9 hydrophobe
6 5 10 11 12 13 14 rings

> <PUBCHEM_HEAVY_ATOM_COUNT>
14

> <PUBCHEM_ATOM_DEF_STEREO_COUNT>
0

> <PUBCHEM_ATOM_UDEF_STEREO_COUNT>
1

> <PUBCHEM_BOND_DEF_STEREO_COUNT>
0

> <PUBCHEM_BOND_UDEF_STEREO_COUNT>
0

> <PUBCHEM_ISOTOPIC_ATOM_COUNT>
0

> <PUBCHEM_COMPONENT_COUNT>
1

> <PUBCHEM_CACTVS_TAUTO_COUNT>
1

> <PUBCHEM_CONFORMER_ID>
0008AF7E00000007

> <PUBCHEM_MMFF94_ENERGY>
31.1164

> <PUBCHEM_FEATURE_SELFOVERLAP>
15.223

> <PUBCHEM_SHAPE_FINGERPRINT>
11031198 65 11386632023377825283
11127187 94 18259705609806772607
12251169 10 12823301199345735950
12532896 13 17766288569820665561
13296908 3 18413106186421653606
14115302 16 18113345210349266111
16945 1 18269270158113765185
20201158 50 18408319999294728119
20361792 2 18202003269519005293
20645477 70 18124308578646077095
20653085 51 15285360604625696943
20671657 53 17822013124975653134
20711985 344 18269845211290385953
21028194 46 9151179757032371238
21061003 4 18202008758597946739
21296965 67 18342174505302103257
22802520 49 17386289925467916953
23559900 14 18334843997314056408
25 1 12324231754906712140
2748010 2 18263920115011174529
305870 269 9295023331508621716
31174 14 17978519963842253347
3312278 4 18260269642070684522
7364860 26 17981324800392453841
81228 2 18199477558140170137

> <PUBCHEM_SHAPE_MULTIPOLES>
276.37
5.57
2.09
1.21
3.02
1.32
-0.03
-3.17
-1.12
-0.8
0.79
0.16
-0.18
0.01

> <PUBCHEM_SHAPE_SELFOVERLAP>
563.453

> <PUBCHEM_SHAPE_VOLUME>
160.8

> <PUBCHEM_COORDINATE_TYPE>
2
5
10

$$$$
