56969824
  -OEChem-11232109253D

 49 50  0     1  0  0  0  0  0999 V2000
    1.2321   -0.8158    1.5482 O   0  0  0  0  0  0  0  0  0  0  0  0
   -0.4100   -1.2941   -0.0312 N   0  0  0  0  0  0  0  0  0  0  0  0
   -2.8536    0.7406    0.1537 N   0  0  0  0  0  0  0  0  0  0  0  0
    3.0354   -0.0618   -0.5332 C   0  0  1  0  0  0  0  0  0  0  0  0
    1.5042   -0.0054   -0.6849 C   0  0  2  0  0  0  0  0  0  0  0  0
    3.5422    0.8205    0.6159 C   0  0  0  0  0  0  0  0  0  0  0  0
    1.5091    2.3164    0.3950 C   0  0  1  0  0  0  0  0  0  0  0  0
    0.9917    1.4385   -0.7557 C   0  0  0  0  0  0  0  0  0  0  0  0
    3.0376    2.2559    0.4884 C   0  0  0  0  0  0  0  0  0  0  0  0
    3.5576   -1.4929   -0.3913 C   0  0  0  0  0  0  0  0  0  0  0  0
    0.7769   -0.7347    0.4103 C   0  0  0  0  0  0  0  0  0  0  0  0
    1.0382    3.7601    0.2214 C   0  0  0  0  0  0  0  0  0  0  0  0
    5.0835   -1.5055   -0.3776 C   0  0  0  0  0  0  0  0  0  0  0  0
    3.0210   -2.3715   -1.5177 C   0  0  0  0  0  0  0  0  0  0  0  0
   -1.2852   -2.0662    0.8210 C   0  0  0  0  0  0  0  0  0  0  0  0
   -2.3285   -1.2024    1.5257 C   0  0  0  0  0  0  0  0  0  0  0  0
   -3.2454   -0.4861    0.5651 C   0  0  0  0  0  0  0  0  0  0  0  0
   -4.4174   -1.1031    0.1580 C   0  0  0  0  0  0  0  0  0  0  0  0
   -5.2399   -0.4170   -0.7286 C   0  0  0  0  0  0  0  0  0  0  0  0
   -3.6786    1.3771   -0.7078 C   0  0  0  0  0  0  0  0  0  0  0  0
   -4.8707    0.8472   -1.1746 C   0  0  0  0  0  0  0  0  0  0  0  0
    3.4538    0.3591   -1.4605 H   0  0  0  0  0  0  0  0  0  0  0  0
    1.2358   -0.4672   -1.6441 H   0  0  0  0  0  0  0  0  0  0  0  0
    4.6361    0.8764    0.6057 H   0  0  0  0  0  0  0  0  0  0  0  0
    3.2685    0.4161    1.5954 H   0  0  0  0  0  0  0  0  0  0  0  0
    1.0891    1.9444    1.3383 H   0  0  0  0  0  0  0  0  0  0  0  0
    1.3133    1.8746   -1.7111 H   0  0  0  0  0  0  0  0  0  0  0  0
   -0.1051    1.4563   -0.7624 H   0  0  0  0  0  0  0  0  0  0  0  0
    3.3826    2.8376    1.3518 H   0  0  0  0  0  0  0  0  0  0  0  0
    3.4841    2.7179   -0.4017 H   0  0  0  0  0  0  0  0  0  0  0  0
    3.2327   -1.9365    0.5571 H   0  0  0  0  0  0  0  0  0  0  0  0
    1.4258    4.1977   -0.7049 H   0  0  0  0  0  0  0  0  0  0  0  0
    1.3763    4.3819    1.0570 H   0  0  0  0  0  0  0  0  0  0  0  0
   -0.0553    3.8098    0.1880 H   0  0  0  0  0  0  0  0  0  0  0  0
    5.5003   -0.9538   -1.2271 H   0  0  0  0  0  0  0  0  0  0  0  0
    5.4610   -2.5329   -0.4354 H   0  0  0  0  0  0  0  0  0  0  0  0
    5.4894   -1.0835    0.5465 H   0  0  0  0  0  0  0  0  0  0  0  0
    3.2103   -1.9257   -2.5003 H   0  0  0  0  0  0  0  0  0  0  0  0
    1.9489   -2.5640   -1.4228 H   0  0  0  0  0  0  0  0  0  0  0  0
    3.5085   -3.3531   -1.5042 H   0  0  0  0  0  0  0  0  0  0  0  0
   -0.7011   -1.1539   -0.9942 H   0  0  0  0  0  0  0  0  0  0  0  0
   -1.7671   -2.8187    0.1873 H   0  0  0  0  0  0  0  0  0  0  0  0
   -0.6790   -2.5910    1.5674 H   0  0  0  0  0  0  0  0  0  0  0  0
   -2.9213   -1.8234    2.2084 H   0  0  0  0  0  0  0  0  0  0  0  0
   -1.8266   -0.4530    2.1514 H   0  0  0  0  0  0  0  0  0  0  0  0
   -4.6956   -2.0906    0.5100 H   0  0  0  0  0  0  0  0  0  0  0  0
   -6.1667   -0.8668   -1.0719 H   0  0  0  0  0  0  0  0  0  0  0  0
   -3.3447    2.3593   -1.0255 H   0  0  0  0  0  0  0  0  0  0  0  0
   -5.4962    1.4002   -1.8660 H   0  0  0  0  0  0  0  0  0  0  0  0
  1 11  2  0  0  0  0
  2 11  1  0  0  0  0
  2 15  1  0  0  0  0
  2 41  1  0  0  0  0
  3 17  1  0  0  0  0
  3 20  2  0  0  0  0
  4  5  1  0  0  0  0
  4  6  1  0  0  0  0
  4 10  1  0  0  0  0
  4 22  1  0  0  0  0
  5  8  1  0  0  0  0
  5 11  1  0  0  0  0
  5 23  1  0  0  0  0
  6  9  1  0  0  0  0
  6 24  1  0  0  0  0
  6 25  1  0  0  0  0
  7  8  1  0  0  0  0
  7  9  1  0  0  0  0
  7 12  1  0  0  0  0
  7 26  1  0  0  0  0
  8 27  1  0  0  0  0
  8 28  1  0  0  0  0
  9 29  1  0  0  0  0
  9 30  1  0  0  0  0
 10 13  1  0  0  0  0
 10 14  1  0  0  0  0
 10 31  1  0  0  0  0
 12 32  1  0  0  0  0
 12 33  1  0  0  0  0
 12 34  1  0  0  0  0
 13 35  1  0  0  0  0
 13 36  1  0  0  0  0
 13 37  1  0  0  0  0
 14 38  1  0  0  0  0
 14 39  1  0  0  0  0
 14 40  1  0  0  0  0
 15 16  1  0  0  0  0
 15 42  1  0  0  0  0
 15 43  1  0  0  0  0
 16 17  1  0  0  0  0
 16 44  1  0  0  0  0
 16 45  1  0  0  0  0
 17 18  2  0  0  0  0
 18 19  1  0  0  0  0
 18 46  1  0  0  0  0
 19 21  2  0  0  0  0
 19 47  1  0  0  0  0
 20 21  1  0  0  0  0
 20 48  1  0  0  0  0
 21 49  1  0  0  0  0
M  END
> <PUBCHEM_COMPOUND_CID>
56969824

> <PUBCHEM_CONFORMER_RMSD>
1

> <PUBCHEM_CONFORMER_DIVERSEORDER>
1
70
192
5
157
101
187
99
84
13
160
198
188
168
159
150
111
135
196
114
139
161
41
193
129
105
154
147
56
74
144
203
124
174
15
63
46
204
162
55
97
93
121
6
95
40
67
177
163
16
60
14
91
183
181
180
194
132
65
153
123
115
205
78
152
209
20
176
51
12
102
82
11
158
61
107
206
175
130
112
146
151
106
48
128
200
184
134
156
83
18
21
53
143
118
52
9
164
27
47
98
140
77
79
4
208
85
148
116
2
68
50
24
191
122
59
149
141
113
199
73
167
169
54
142
178
109
120
44
42
26
87
58
8
32
201
155
71
37
182
92
170
125
3
137
108
76
136
197
66
88
30
89
72
185
96
10
104
90
138
86
179
80
171
81
207
33
103
165
166
17
172
145
69
133
38
126
189
195
75
131
35
29
202
173
64
190
43
22
127
23
110
45
36
7
19
186
62
25
117
57
39
119
100
28
34
31
94
49

> <PUBCHEM_MMFF94_PARTIAL_CHARGES>
17
1 -0.57
11 0.57
15 0.3
16 0.14
17 0.17
18 -0.15
19 -0.15
2 -0.73
20 0.16
21 -0.15
3 -0.62
41 0.37
46 0.15
47 0.15
48 0.15
49 0.15
5 0.06

> <PUBCHEM_EFFECTIVE_ROTOR_COUNT>
7.2

> <PUBCHEM_PHARMACOPHORE_FEATURES>
6
1 1 acceptor
1 2 donor
1 3 acceptor
3 10 13 14 hydrophobe
6 3 17 18 19 20 21 rings
6 4 5 6 7 8 9 rings

> <PUBCHEM_HEAVY_ATOM_COUNT>
21

> <PUBCHEM_ATOM_DEF_STEREO_COUNT>
0

> <PUBCHEM_ATOM_UDEF_STEREO_COUNT>
3

> <PUBCHEM_BOND_DEF_STEREO_COUNT>
0

> <PUBCHEM_BOND_UDEF_STEREO_COUNT>
0

> <PUBCHEM_ISOTOPIC_ATOM_COUNT>
0

> <PUBCHEM_COMPONENT_COUNT>
1

> <PUBCHEM_CACTVS_TAUTO_COUNT>
4

> <PUBCHEM_CONFORMER_ID>
03654A6000000001

> <PUBCHEM_MMFF94_ENERGY>
41.4033

> <PUBCHEM_FEATURE_SELFOVERLAP>
30.446

> <PUBCHEM_SHAPE_FINGERPRINT>
10646746 165 18114741632981883281
1100329 8 16894261396499441784
116883 192 18269282261980172596
12011746 2 18040431062662665695
12403259 226 18335703883825844777
12403259 415 18113335311003666581
12788726 201 18192437364403539986
13134695 92 18342463646816770236
13402501 40 18335135392868980093
13583140 156 18266187299308569459
14251739 40 17489310750286092126
14251757 17 18408603647551043633
14251764 38 18337106860700492317
14347329 18 16661476308387987981
14866123 147 17402619549899109418
15081414 286 18338244854971412128
15238133 3 15502643902084155181
15806764 133 18116738333418900619
15848700 24 18341615876275646934
15848702 151 18201723903413642991
16994733 274 16299244552539360796
17349148 13 16487265360782260262
17357779 13 18268999700165849876
17492 89 18268429225224848711
17980427 23 17417827118724482112
18186145 218 18334575729235154329
18335252 114 18267857299654299237
192875 21 18202568379999440081
20645477 70 18201445778733144606
20681677 76 18265057001650342115
21033648 29 17894346696717255301
21279426 13 18190174590241135614
221357 26 18410008815306787933
22289505 5 18409448085677320412
22393880 68 18260536798064137511
23227448 37 18266453403277426543
23402539 116 18201159828041457922
23419403 2 17272267082518280840
23557571 272 17897728897574182851
23559900 14 18412260670358786632
351380 180 18409725197056824917
3524813 1 18260259789664010629
495365 180 18059006302365178802
508706 21 17894621548886044629
5281201 14 18411705400213137263
7399639 24 17545612608775076275
7471813 234 17632858611710225640
9709674 26 18263926703897207939
9971528 1 18342738516170358560
9981440 41 17548126088182569936

> <PUBCHEM_SHAPE_MULTIPOLES>
416.34
10.24
3.08
1.22
7.88
2.3
-0.06
-2.34
2.65
-2.59
-0.06
0.24
-0.39
1.74

> <PUBCHEM_SHAPE_SELFOVERLAP>
849.851

> <PUBCHEM_SHAPE_VOLUME>
238.6

> <PUBCHEM_COORDINATE_TYPE>
2
5
10

$$$$
