570574
  -OEChem-11232108453D

 30 30  0     1  0  0  0  0  0999 V2000
    0.7997    1.3772    0.3203 O   0  0  0  0  0  0  0  0  0  0  0  0
    1.0262   -0.2976   -1.2503 O   0  0  0  0  0  0  0  0  0  0  0  0
   -0.5150    1.6605   -0.1693 C   0  0  1  0  0  0  0  0  0  0  0  0
   -1.3882    0.4340   -0.0314 C   0  0  0  0  0  0  0  0  0  0  0  0
    2.8218    0.1946    0.3147 C   0  0  0  0  0  0  0  0  0  0  0  0
    3.6136   -0.9398   -0.3309 C   0  0  0  0  0  0  0  0  0  0  0  0
   -1.0965    2.8254    0.5773 C   0  0  0  0  0  0  0  0  0  0  0  0
    1.4598    0.3659   -0.3184 C   0  0  0  0  0  0  0  0  0  0  0  0
   -1.1646   -0.4419    1.0178 C   0  0  0  0  0  0  0  0  0  0  0  0
   -2.3936    0.2109   -0.9571 C   0  0  0  0  0  0  0  0  0  0  0  0
    4.9930   -1.0814    0.2916 C   0  0  0  0  0  0  0  0  0  0  0  0
   -1.9701   -1.5738    1.1449 C   0  0  0  0  0  0  0  0  0  0  0  0
   -3.1990   -0.9208   -0.8300 C   0  0  0  0  0  0  0  0  0  0  0  0
   -2.9871   -1.8132    0.2210 C   0  0  0  0  0  0  0  0  0  0  0  0
   -0.4196    1.9365   -1.2282 H   0  0  0  0  0  0  0  0  0  0  0  0
    3.3688    1.1377    0.2050 H   0  0  0  0  0  0  0  0  0  0  0  0
    2.6801   -0.0147    1.3810 H   0  0  0  0  0  0  0  0  0  0  0  0
    3.0675   -1.8847   -0.2237 H   0  0  0  0  0  0  0  0  0  0  0  0
    3.7208   -0.7569   -1.4069 H   0  0  0  0  0  0  0  0  0  0  0  0
   -1.1663    2.6199    1.6521 H   0  0  0  0  0  0  0  0  0  0  0  0
   -2.0966    3.0874    0.2162 H   0  0  0  0  0  0  0  0  0  0  0  0
   -0.4527    3.7061    0.4747 H   0  0  0  0  0  0  0  0  0  0  0  0
   -0.3963   -0.2676    1.7652 H   0  0  0  0  0  0  0  0  0  0  0  0
   -2.5667    0.9008   -1.7779 H   0  0  0  0  0  0  0  0  0  0  0  0
    5.5417   -1.8999   -0.1847 H   0  0  0  0  0  0  0  0  0  0  0  0
    5.5761   -0.1634    0.1665 H   0  0  0  0  0  0  0  0  0  0  0  0
    4.9196   -1.2991    1.3619 H   0  0  0  0  0  0  0  0  0  0  0  0
   -1.8090   -2.2658    1.9663 H   0  0  0  0  0  0  0  0  0  0  0  0
   -3.9915   -1.1071   -1.5490 H   0  0  0  0  0  0  0  0  0  0  0  0
   -3.6151   -2.6936    0.3206 H   0  0  0  0  0  0  0  0  0  0  0  0
  1  3  1  0  0  0  0
  1  8  1  0  0  0  0
  2  8  2  0  0  0  0
  3  4  1  0  0  0  0
  3  7  1  0  0  0  0
  3 15  1  0  0  0  0
  4  9  2  0  0  0  0
  4 10  1  0  0  0  0
  5  6  1  0  0  0  0
  5  8  1  0  0  0  0
  5 16  1  0  0  0  0
  5 17  1  0  0  0  0
  6 11  1  0  0  0  0
  6 18  1  0  0  0  0
  6 19  1  0  0  0  0
  7 20  1  0  0  0  0
  7 21  1  0  0  0  0
  7 22  1  0  0  0  0
  9 12  1  0  0  0  0
  9 23  1  0  0  0  0
 10 13  2  0  0  0  0
 10 24  1  0  0  0  0
 11 25  1  0  0  0  0
 11 26  1  0  0  0  0
 11 27  1  0  0  0  0
 12 14  2  0  0  0  0
 12 28  1  0  0  0  0
 13 14  1  0  0  0  0
 13 29  1  0  0  0  0
 14 30  1  0  0  0  0
M  END
> <PUBCHEM_COMPOUND_CID>
570574

> <PUBCHEM_CONFORMER_RMSD>
0.6

> <PUBCHEM_CONFORMER_DIVERSEORDER>
9
103
13
75
45
54
7
88
113
77
92
105
110
51
83
18
98
23
37
19
86
73
61
6
58
89
56
60
8
50
20
67
16
117
84
111
24
17
53
80
102
35
57
63
64
71
106
99
66
5
12
46
43
112
115
100
3
2
49
11
91
78
48
21
31
65
41
90
81
101
76
70
27
14
1
29
32
93
36
107
97
74
79
62
96
40
59
10
22
39
108
42
104
4
34
94
55
68
44
38
114
95
26
85
87
28
82
15
69
72
116
47
25
109
30
52
33

> <PUBCHEM_MMFF94_PARTIAL_CHARGES>
16
1 -0.43
10 -0.15
12 -0.15
13 -0.15
14 -0.15
2 -0.57
23 0.15
24 0.15
28 0.15
29 0.15
3 0.42
30 0.15
4 -0.14
5 0.06
8 0.66
9 -0.15

> <PUBCHEM_EFFECTIVE_ROTOR_COUNT>
5

> <PUBCHEM_PHARMACOPHORE_FEATURES>
3
1 11 hydrophobe
1 2 acceptor
6 4 9 10 12 13 14 rings

> <PUBCHEM_HEAVY_ATOM_COUNT>
14

> <PUBCHEM_ATOM_DEF_STEREO_COUNT>
0

> <PUBCHEM_ATOM_UDEF_STEREO_COUNT>
1

> <PUBCHEM_BOND_DEF_STEREO_COUNT>
0

> <PUBCHEM_BOND_UDEF_STEREO_COUNT>
0

> <PUBCHEM_ISOTOPIC_ATOM_COUNT>
0

> <PUBCHEM_COMPONENT_COUNT>
1

> <PUBCHEM_CACTVS_TAUTO_COUNT>
1

> <PUBCHEM_CONFORMER_ID>
0008B4CE00000009

> <PUBCHEM_MMFF94_ENERGY>
26.7268

> <PUBCHEM_FEATURE_SELFOVERLAP>
15.223

> <PUBCHEM_SHAPE_FINGERPRINT>
10610426 29 16772651365162066077
11127187 94 18040998457612098711
11315181 36 18187082824644127114
12363563 72 18412268371362034646
12532896 13 17836936602889401513
13024252 1 18113904814713268965
13296908 3 18337107968458448794
14115302 16 17967820456956542463
16945 1 17603850235416195329
17834072 14 18337380630246657696
200 152 18412819196585804182
20201158 50 18335980951839309063
20361792 2 18200601413758117677
20524608 308 18126570011517291636
20671657 53 17676208000391727910
20711983 138 18409168835277326113
20711985 344 18337664218316025889
21061003 4 18271249421088685355
21296965 67 18340205297161867921
2306618 200 17417809487582836920
23402539 116 18341040822988555469
23403322 49 18334573534143427754
23526113 38 18116985800844528985
23559900 14 18334002909521019120
25 1 11747204762720768830
3086196 2 18341048536717988496
76465 3 18269547415791709831
81228 2 18269007405147749049
8809292 202 18408040697492003604

> <PUBCHEM_SHAPE_MULTIPOLES>
276.37
6.77
2.2
1.05
9.06
1.26
-0.02
-4.5
-0.34
-1.31
0.56
-0.46
-0.16
0.13

> <PUBCHEM_SHAPE_SELFOVERLAP>
560.492

> <PUBCHEM_SHAPE_VOLUME>
160.7

> <PUBCHEM_COORDINATE_TYPE>
2
5
10

$$$$
