57346909
  -OEChem-11232109443D

 24 25  0     1  0  0  0  0  0999 V2000
    1.7446   -0.9666   -0.9178 S   0  0  0  0  0  0  0  0  0  0  0  0
    0.8796    1.7408    0.1221 S   0  0  0  0  0  0  0  0  0  0  0  0
   -0.8599   -0.4658   -0.1833 N   0  0  3  0  0  0  0  0  0  0  0  0
    0.1105   -1.5400   -0.3211 C   0  0  2  0  0  0  0  0  0  0  0  0
   -2.2905   -0.7609   -0.2363 C   0  0  0  0  0  0  0  0  0  0  0  0
   -0.6230    0.8862    0.0379 C   0  0  0  0  0  0  0  0  0  0  0  0
   -2.9527    0.6068   -0.0010 C   0  0  0  0  0  0  0  0  0  0  0  0
   -1.7900    1.5441    0.1439 C   0  0  0  0  0  0  0  0  0  0  0  0
    2.0573    0.3655    0.2883 C   0  0  2  0  0  0  0  0  0  0  0  0
    0.2528   -2.3093    0.9910 C   0  0  0  0  0  0  0  0  0  0  0  0
    3.4713    0.8992    0.0764 C   0  0  0  0  0  0  0  0  0  0  0  0
   -0.2468   -2.2395   -1.0855 H   0  0  0  0  0  0  0  0  0  0  0  0
   -2.5841   -1.4733    0.5418 H   0  0  0  0  0  0  0  0  0  0  0  0
   -2.5699   -1.1693   -1.2138 H   0  0  0  0  0  0  0  0  0  0  0  0
   -3.5652    0.5992    0.9061 H   0  0  0  0  0  0  0  0  0  0  0  0
   -3.5843    0.8908   -0.8484 H   0  0  0  0  0  0  0  0  0  0  0  0
   -1.9083    2.6071    0.3031 H   0  0  0  0  0  0  0  0  0  0  0  0
    1.9935   -0.0378    1.3028 H   0  0  0  0  0  0  0  0  0  0  0  0
    0.5212   -1.6588    1.8297 H   0  0  0  0  0  0  0  0  0  0  0  0
    1.0026   -3.1041    0.9120 H   0  0  0  0  0  0  0  0  0  0  0  0
   -0.6959   -2.7882    1.2585 H   0  0  0  0  0  0  0  0  0  0  0  0
    3.7110    1.6781    0.8101 H   0  0  0  0  0  0  0  0  0  0  0  0
    4.2144    0.1038    0.2089 H   0  0  0  0  0  0  0  0  0  0  0  0
    3.6124    1.3263   -0.9239 H   0  0  0  0  0  0  0  0  0  0  0  0
  1  4  1  0  0  0  0
  1  9  1  0  0  0  0
  2  6  1  0  0  0  0
  2  9  1  0  0  0  0
  3  4  1  0  0  0  0
  3  5  1  0  0  0  0
  3  6  1  0  0  0  0
  4 10  1  0  0  0  0
  4 12  1  0  0  0  0
  5  7  1  0  0  0  0
  5 13  1  0  0  0  0
  5 14  1  0  0  0  0
  6  8  2  0  0  0  0
  7  8  1  0  0  0  0
  7 15  1  0  0  0  0
  7 16  1  0  0  0  0
  8 17  1  0  0  0  0
  9 11  1  0  0  0  0
  9 18  1  0  0  0  0
 10 19  1  0  0  0  0
 10 20  1  0  0  0  0
 10 21  1  0  0  0  0
 11 22  1  0  0  0  0
 11 23  1  0  0  0  0
 11 24  1  0  0  0  0
M  END
> <PUBCHEM_COMPOUND_CID>
57346909

> <PUBCHEM_CONFORMER_RMSD>
0.4

> <PUBCHEM_CONFORMER_DIVERSEORDER>
1
7
8
2
5
6
4
3

> <PUBCHEM_MMFF94_PARTIAL_CHARGES>
10
1 -0.46
17 0.15
2 -0.33
3 -0.84
4 0.6
5 0.37
6 0.2
7 0.14
8 -0.29
9 0.46

> <PUBCHEM_EFFECTIVE_ROTOR_COUNT>
1.2

> <PUBCHEM_PHARMACOPHORE_FEATURES>
3
1 3 cation
5 3 5 6 7 8 rings
6 1 2 3 4 6 9 rings

> <PUBCHEM_HEAVY_ATOM_COUNT>
11

> <PUBCHEM_ATOM_DEF_STEREO_COUNT>
0

> <PUBCHEM_ATOM_UDEF_STEREO_COUNT>
2

> <PUBCHEM_BOND_DEF_STEREO_COUNT>
0

> <PUBCHEM_BOND_UDEF_STEREO_COUNT>
0

> <PUBCHEM_ISOTOPIC_ATOM_COUNT>
0

> <PUBCHEM_COMPONENT_COUNT>
1

> <PUBCHEM_CACTVS_TAUTO_COUNT>
1

> <PUBCHEM_CONFORMER_ID>
036B0B5D00000001

> <PUBCHEM_MMFF94_ENERGY>
26.1496

> <PUBCHEM_FEATURE_SELFOVERLAP>
15.277

> <PUBCHEM_SHAPE_FINGERPRINT>
12524768 44 18055076454322962935
13380535 76 18340768234288383654
14325111 11 18412544310157536108
15775835 57 18410857646393297960
16945 1 18201718500202145277
18185500 45 17688594861861355291
19021347 11 18336259063777297819
193761 8 17762335812612498064
20201158 50 18272934937959498964
20511035 2 17909266124323330708
20645476 183 17895489136379468974
20871998 184 17983582093558728190
21040471 1 18410858788938851852
23235685 24 18341326768894352132
23402539 116 18268978938098762342
23402655 69 18199171924821693877
23463225 33 18336540526259366792
23552423 10 18264492793170983821
23559900 14 18343306994575280732
241688 4 18125451812660650336
2748010 2 18340210687018718484
305870 269 18188484671055541874
5084963 1 18272933859716966352
528862 383 18188762834443610459
528886 8 18341888597655438041
53812653 166 18343018886955664192
63268167 104 18271812280594709344
66348 1 17907863898730953916
7364860 26 18125156026721469270

> <PUBCHEM_SHAPE_MULTIPOLES>
229.09
4.13
2.21
0.83
0.6
0.6
-0.01
-1.42
0.15
0.17
-0.39
0.19
0.3
0.11

> <PUBCHEM_SHAPE_SELFOVERLAP>
438.473

> <PUBCHEM_SHAPE_VOLUME>
140.7

> <PUBCHEM_COORDINATE_TYPE>
2
5
10

$$$$
