57355543
  -OEChem-11232109493D

 55 54  0     1  0  0  0  0  0999 V2000
   -1.0123    0.7604    0.0252 O   0  0  0  0  0  0  0  0  0  0  0  0
    0.8049   -0.6727   -0.4551 O   0  0  0  0  0  0  0  0  0  0  0  0
   -1.3790   -1.3171   -1.2018 C   0  0  0  0  0  0  0  0  0  0  0  0
   -0.4370   -0.1340   -0.9311 C   0  0  1  0  0  0  0  0  0  0  0  0
   -1.7165   -2.1196    0.0616 C   0  0  0  0  0  0  0  0  0  0  0  0
   -2.6120   -3.3164   -0.2662 C   0  0  0  0  0  0  0  0  0  0  0  0
   -2.5200    2.5400    0.5630 C   0  0  0  0  0  0  0  0  0  0  0  0
   -3.5940    3.5285    0.0806 C   0  0  0  0  0  0  0  0  0  0  0  0
    3.1549   -0.4070   -0.0717 C   0  0  0  0  0  0  0  0  0  0  0  0
   -1.9767    1.6383   -0.5389 C   0  0  0  0  0  0  0  0  0  0  0  0
    4.3531    0.5346   -0.1832 C   0  0  0  0  0  0  0  0  0  0  0  0
    1.8826    0.2432   -0.5989 C   0  0  0  0  0  0  0  0  0  0  0  0
    5.6641   -0.0878    0.3052 C   0  0  0  0  0  0  0  0  0  0  0  0
   -2.9215   -4.1383    0.9848 C   0  0  0  0  0  0  0  0  0  0  0  0
    6.8585    0.8629    0.2166 C   0  0  0  0  0  0  0  0  0  0  0  0
   -4.7840    2.7606   -0.4997 C   0  0  0  0  0  0  0  0  0  0  0  0
   -4.0734    4.4580    1.1962 C   0  0  0  0  0  0  0  0  0  0  0  0
   -3.8383   -5.3094    0.6693 C   0  0  0  0  0  0  0  0  0  0  0  0
    8.1466    0.1757    0.6440 C   0  0  0  0  0  0  0  0  0  0  0  0
   -0.8959   -1.9894   -1.9223 H   0  0  0  0  0  0  0  0  0  0  0  0
   -2.3103   -0.9678   -1.6601 H   0  0  0  0  0  0  0  0  0  0  0  0
   -0.2544    0.3899   -1.8790 H   0  0  0  0  0  0  0  0  0  0  0  0
   -2.2235   -1.4736    0.7881 H   0  0  0  0  0  0  0  0  0  0  0  0
   -0.7941   -2.4772    0.5343 H   0  0  0  0  0  0  0  0  0  0  0  0
   -2.1186   -3.9541   -1.0097 H   0  0  0  0  0  0  0  0  0  0  0  0
   -3.5477   -2.9610   -0.7150 H   0  0  0  0  0  0  0  0  0  0  0  0
   -2.9170    1.9168    1.3754 H   0  0  0  0  0  0  0  0  0  0  0  0
   -1.6840    3.0956    1.0077 H   0  0  0  0  0  0  0  0  0  0  0  0
   -3.1665    4.1529   -0.7141 H   0  0  0  0  0  0  0  0  0  0  0  0
    3.0066   -0.7083    0.9726 H   0  0  0  0  0  0  0  0  0  0  0  0
    3.3475   -1.3331   -0.6274 H   0  0  0  0  0  0  0  0  0  0  0  0
   -2.7815    1.0472   -0.9805 H   0  0  0  0  0  0  0  0  0  0  0  0
   -1.5089    2.2458   -1.3220 H   0  0  0  0  0  0  0  0  0  0  0  0
    4.4742    0.8447   -1.2286 H   0  0  0  0  0  0  0  0  0  0  0  0
    4.1517    1.4447    0.3953 H   0  0  0  0  0  0  0  0  0  0  0  0
    1.6642    1.1575   -0.0353 H   0  0  0  0  0  0  0  0  0  0  0  0
    2.0069    0.5008   -1.6571 H   0  0  0  0  0  0  0  0  0  0  0  0
    5.5411   -0.4164    1.3448 H   0  0  0  0  0  0  0  0  0  0  0  0
    5.8717   -0.9873   -0.2878 H   0  0  0  0  0  0  0  0  0  0  0  0
   -1.9901   -4.5169    1.4217 H   0  0  0  0  0  0  0  0  0  0  0  0
   -3.3991   -3.5026    1.7395 H   0  0  0  0  0  0  0  0  0  0  0  0
    6.6839    1.7382    0.8526 H   0  0  0  0  0  0  0  0  0  0  0  0
    6.9690    1.2251   -0.8120 H   0  0  0  0  0  0  0  0  0  0  0  0
   -5.1635    2.0146    0.2069 H   0  0  0  0  0  0  0  0  0  0  0  0
   -4.5243    2.2538   -1.4337 H   0  0  0  0  0  0  0  0  0  0  0  0
   -5.6064    3.4455   -0.7353 H   0  0  0  0  0  0  0  0  0  0  0  0
   -4.5329    3.8918    2.0135 H   0  0  0  0  0  0  0  0  0  0  0  0
   -4.8122    5.1733    0.8197 H   0  0  0  0  0  0  0  0  0  0  0  0
   -3.2350    5.0285    1.6093 H   0  0  0  0  0  0  0  0  0  0  0  0
   -4.7930   -4.9617    0.2619 H   0  0  0  0  0  0  0  0  0  0  0  0
   -3.3776   -5.9826   -0.0607 H   0  0  0  0  0  0  0  0  0  0  0  0
   -4.0457   -5.8838    1.5776 H   0  0  0  0  0  0  0  0  0  0  0  0
    8.0790   -0.1755    1.6786 H   0  0  0  0  0  0  0  0  0  0  0  0
    8.3648   -0.6839    0.0023 H   0  0  0  0  0  0  0  0  0  0  0  0
    8.9880    0.8724    0.5760 H   0  0  0  0  0  0  0  0  0  0  0  0
  1  4  1  0  0  0  0
  1 10  1  0  0  0  0
  2  4  1  0  0  0  0
  2 12  1  0  0  0  0
  3  4  1  0  0  0  0
  3  5  1  0  0  0  0
  3 20  1  0  0  0  0
  3 21  1  0  0  0  0
  4 22  1  0  0  0  0
  5  6  1  0  0  0  0
  5 23  1  0  0  0  0
  5 24  1  0  0  0  0
  6 14  1  0  0  0  0
  6 25  1  0  0  0  0
  6 26  1  0  0  0  0
  7  8  1  0  0  0  0
  7 10  1  0  0  0  0
  7 27  1  0  0  0  0
  7 28  1  0  0  0  0
  8 16  1  0  0  0  0
  8 17  1  0  0  0  0
  8 29  1  0  0  0  0
  9 11  1  0  0  0  0
  9 12  1  0  0  0  0
  9 30  1  0  0  0  0
  9 31  1  0  0  0  0
 10 32  1  0  0  0  0
 10 33  1  0  0  0  0
 11 13  1  0  0  0  0
 11 34  1  0  0  0  0
 11 35  1  0  0  0  0
 12 36  1  0  0  0  0
 12 37  1  0  0  0  0
 13 15  1  0  0  0  0
 13 38  1  0  0  0  0
 13 39  1  0  0  0  0
 14 18  1  0  0  0  0
 14 40  1  0  0  0  0
 14 41  1  0  0  0  0
 15 19  1  0  0  0  0
 15 42  1  0  0  0  0
 15 43  1  0  0  0  0
 16 44  1  0  0  0  0
 16 45  1  0  0  0  0
 16 46  1  0  0  0  0
 17 47  1  0  0  0  0
 17 48  1  0  0  0  0
 17 49  1  0  0  0  0
 18 50  1  0  0  0  0
 18 51  1  0  0  0  0
 18 52  1  0  0  0  0
 19 53  1  0  0  0  0
 19 54  1  0  0  0  0
 19 55  1  0  0  0  0
M  END
> <PUBCHEM_COMPOUND_CID>
57355543

> <PUBCHEM_CONFORMER_RMSD>
1.2

> <PUBCHEM_CONFORMER_DIVERSEORDER>
1
27
14
137
31
117
25
119
104
36
45
113
125
54
82
65
103
70
12
59
33
131
44
74
90
21
143
101
29
84
83
7
35
55
112
78
68
118
126
134
135
71
22
52
63
109
140
5
127
28
2
24
79
77
107
120
48
49
32
85
94
108
115
13
124
116
132
72
39
73
11
141
61
144
20
86
51
76
95
121
42
142
17
145
128
81
6
129
133
23
40
98
43
110
105
64
38
10
69
19
8
67
99
16
93
50
87
88
47
114
111
89
37
138
30
92
91
123
41
139
96
130
15
34
9
60
106
58
18
53
62
57
75
56
100
3
4
46
80
66
26
136
102
122
97

> <PUBCHEM_MMFF94_PARTIAL_CHARGES>
5
1 -0.56
10 0.28
12 0.28
2 -0.56
4 0.56

> <PUBCHEM_EFFECTIVE_ROTOR_COUNT>
14

> <PUBCHEM_PHARMACOPHORE_FEATURES>
7
1 1 acceptor
1 18 hydrophobe
1 19 hydrophobe
1 2 acceptor
3 8 16 17 hydrophobe
4 3 5 6 14 hydrophobe
4 9 11 13 15 hydrophobe

> <PUBCHEM_HEAVY_ATOM_COUNT>
19

> <PUBCHEM_ATOM_DEF_STEREO_COUNT>
0

> <PUBCHEM_ATOM_UDEF_STEREO_COUNT>
1

> <PUBCHEM_BOND_DEF_STEREO_COUNT>
0

> <PUBCHEM_BOND_UDEF_STEREO_COUNT>
0

> <PUBCHEM_ISOTOPIC_ATOM_COUNT>
0

> <PUBCHEM_COMPONENT_COUNT>
1

> <PUBCHEM_CACTVS_TAUTO_COUNT>
1

> <PUBCHEM_CONFORMER_ID>
036B2D1700000001

> <PUBCHEM_MMFF94_ENERGY>
12.9816

> <PUBCHEM_FEATURE_SELFOVERLAP>
35.562

> <PUBCHEM_SHAPE_FINGERPRINT>
10411042 1 18050286174398685407
12788726 201 18118702138337465726
13052359 8 18409452475323612487
13073987 5 18338509859750342688
13540713 4 17987816128729122734
13955234 65 17402064301349473297
15778101 99 18412262810202267084
15878777 1 12689924757219277967
17980427 26 17764016974723610405
21426921 1 18410574024170303166
394222 165 17552918421898202017
4073 2 18410293597936070830
4409770 3 18335417994071335271
5104073 3 18336250294524783202
57634706 229 18129116536435192928
5969126 39 18129649937028974431
59755656 520 18337948965846579364
77188 2 17906174310674287783

> <PUBCHEM_SHAPE_MULTIPOLES>
379.27
15.63
6.77
1
43.91
4.92
-0.02
-6.17
-4.3
-20.33
-2.9
-0.57
0
0.24

> <PUBCHEM_SHAPE_SELFOVERLAP>
687.025

> <PUBCHEM_SHAPE_VOLUME>
243.7

> <PUBCHEM_COORDINATE_TYPE>
2
5
10

$$$$
