57350395
  -OEChem-11232109143D

 26 25  0     1  0  0  0  0  0999 V2000
   -0.5827    2.1087    0.6543 S   0  0  0  0  0  0  0  0  0  0  0  0
   -2.3555   -2.5880    0.1567 O   0  0  0  0  0  0  0  0  0  0  0  0
    0.4773   -0.4315    0.1855 C   0  0  0  0  0  0  0  0  0  0  0  0
   -0.7195    0.4722   -0.1630 C   0  0  1  0  0  0  0  0  0  0  0  0
    1.8406    0.1541   -0.2033 C   0  0  0  0  0  0  0  0  0  0  0  0
    2.9772   -0.8023    0.1635 C   0  0  0  0  0  0  0  0  0  0  0  0
   -2.0329   -0.2001    0.2577 C   0  0  0  0  0  0  0  0  0  0  0  0
    4.3353   -0.2096   -0.1772 C   0  0  0  0  0  0  0  0  0  0  0  0
   -2.2415   -1.5220   -0.4402 C   0  0  0  0  0  0  0  0  0  0  0  0
   -1.6983    3.0186   -0.4340 C   0  0  0  0  0  0  0  0  0  0  0  0
    0.4734   -0.6530    1.2613 H   0  0  0  0  0  0  0  0  0  0  0  0
    0.3695   -1.3956   -0.3268 H   0  0  0  0  0  0  0  0  0  0  0  0
   -0.7135    0.6260   -1.2490 H   0  0  0  0  0  0  0  0  0  0  0  0
    2.0162    1.1066    0.3073 H   0  0  0  0  0  0  0  0  0  0  0  0
    1.8597    0.3543   -1.2814 H   0  0  0  0  0  0  0  0  0  0  0  0
    2.8528   -1.7510   -0.3715 H   0  0  0  0  0  0  0  0  0  0  0  0
    2.9441   -1.0271    1.2359 H   0  0  0  0  0  0  0  0  0  0  0  0
   -2.9015    0.4167    0.0044 H   0  0  0  0  0  0  0  0  0  0  0  0
   -2.0558   -0.3798    1.3395 H   0  0  0  0  0  0  0  0  0  0  0  0
    4.5058    0.7225    0.3709 H   0  0  0  0  0  0  0  0  0  0  0  0
    4.4132    0.0020   -1.2484 H   0  0  0  0  0  0  0  0  0  0  0  0
    5.1324   -0.9107    0.0895 H   0  0  0  0  0  0  0  0  0  0  0  0
   -2.3015   -1.4785   -1.5412 H   0  0  0  0  0  0  0  0  0  0  0  0
   -1.6843    4.0748   -0.1508 H   0  0  0  0  0  0  0  0  0  0  0  0
   -2.7252    2.6588   -0.3394 H   0  0  0  0  0  0  0  0  0  0  0  0
   -1.3729    2.9421   -1.4748 H   0  0  0  0  0  0  0  0  0  0  0  0
  1  4  1  0  0  0  0
  1 10  1  0  0  0  0
  2  9  2  0  0  0  0
  3  4  1  0  0  0  0
  3  5  1  0  0  0  0
  3 11  1  0  0  0  0
  3 12  1  0  0  0  0
  4  7  1  0  0  0  0
  4 13  1  0  0  0  0
  5  6  1  0  0  0  0
  5 14  1  0  0  0  0
  5 15  1  0  0  0  0
  6  8  1  0  0  0  0
  6 16  1  0  0  0  0
  6 17  1  0  0  0  0
  7  9  1  0  0  0  0
  7 18  1  0  0  0  0
  7 19  1  0  0  0  0
  8 20  1  0  0  0  0
  8 21  1  0  0  0  0
  8 22  1  0  0  0  0
  9 23  1  0  0  0  0
 10 24  1  0  0  0  0
 10 25  1  0  0  0  0
 10 26  1  0  0  0  0
M  END
> <PUBCHEM_COMPOUND_CID>
57350395

> <PUBCHEM_CONFORMER_RMSD>
0.6

> <PUBCHEM_CONFORMER_DIVERSEORDER>
1
353
259
283
314
267
382
368
311
309
270
359
403
61
391
355
104
281
297
244
117
330
335
10
108
300
63
418
431
139
188
411
254
126
239
122
413
357
389
406
263
47
27
49
57
278
329
45
377
342
323
231
141
315
362
294
136
73
351
109
393
213
268
168
407
402
224
116
157
208
374
225
265
343
334
176
354
219
84
174
397
379
331
71
303
143
340
106
288
429
76
11
162
327
68
206
25
222
166
62
280
186
134
242
163
276
412
3
419
40
284
217
385
144
184
260
405
421
220
360
347
221
258
410
298
289
370
195
404
129
272
243
422
6
332
384
66
182
97
376
107
158
255
287
262
79
378
273
193
147
427
115
319
114
233
179
250
240
333
356
137
149
214
381
235
301
399
266
337
274
201
388
36
264
80
210
345
226
14
339
416
426
103
247
48
328
59
65
279
9
286
236
105
256
269
383
203
185
395
394
346
302
363
271
160
305
132
175
392
375
373
227
102
380
414
218
423
140
151
408
317
369
91
118
306
60
428
361
159
32
167
169
229
41
70
372
366
390
55
173
400
171
125
54
275
19
304
172
110
85
150
251
223
398
196
37
51
164
92
128
58
415
192
148
318
420
156
261
321
324
72
146
348
326
190
364
205
112
232
165
290
246
313
86
253
291
18
308
89
142
38
215
322
292
358
56
81
161
252
53
365
202
387
87
153
257
180
44
154
312
241
170
430
211
237
352
77
78
230
155
130
95
409
307
12
325
200
396
189
417
316
83
82
17
207
320
5
424
228
212
199
338
46
245
296
35
249
99
197
121
187
183
234
285
100
24
282
350
127
22
349
88
69
367
344
119
204
21
26
16
216
145
177
43
191
20
135
4
94
8
31
425
2
96
113
123
133
7
336
386
29
64
152
178
34
120
39
181
111
310
341
248
13
93
295
124
371
33
15
28
299
194
67
277
42
138
30
74
101
75
98
401
198
90
238
52
293
50
131
23
209

> <PUBCHEM_MMFF94_PARTIAL_CHARGES>
7
1 -0.46
10 0.23
2 -0.57
23 0.06
4 0.23
7 0.06
9 0.45

> <PUBCHEM_EFFECTIVE_ROTOR_COUNT>
6

> <PUBCHEM_PHARMACOPHORE_FEATURES>
4
1 10 hydrophobe
1 2 acceptor
1 8 hydrophobe
6 1 3 4 5 6 7 hydrophobe

> <PUBCHEM_HEAVY_ATOM_COUNT>
10

> <PUBCHEM_ATOM_DEF_STEREO_COUNT>
0

> <PUBCHEM_ATOM_UDEF_STEREO_COUNT>
1

> <PUBCHEM_BOND_DEF_STEREO_COUNT>
0

> <PUBCHEM_BOND_UDEF_STEREO_COUNT>
0

> <PUBCHEM_ISOTOPIC_ATOM_COUNT>
0

> <PUBCHEM_COMPONENT_COUNT>
1

> <PUBCHEM_CACTVS_TAUTO_COUNT>
2

> <PUBCHEM_CONFORMER_ID>
036B18FB00000001

> <PUBCHEM_MMFF94_ENERGY>
10.2168

> <PUBCHEM_FEATURE_SELFOVERLAP>
20.298

> <PUBCHEM_SHAPE_FINGERPRINT>
1 1 17257091467864370981
12138202 97 18196086642783822660
12716758 59 18197773302305490224
12932764 1 18339369561224778586
18342897 69 18409443679025121778
20645477 56 18267589005283411976
20645477 70 17473247152173090863
20671657 53 18125156284793949711
20711985 344 18339062827239496985
20711985 365 18409730642685219533
20871998 184 18202848742310576223
21061003 4 18201161077924654283
21499 59 17759795949490509189
23380061 127 18410007715926801306
23402539 116 18343292644545888245
23526114 1 18122341551911033717
23557571 272 18202009794112677508
23598294 1 18336824169725213465
6333449 129 18268709411526247344
81228 2 18341058436512149785

> <PUBCHEM_SHAPE_MULTIPOLES>
203.78
5.5
2.88
0.73
7.71
0.73
0.02
-1.32
-0.43
-3.79
-0.09
-0.1
0.15
0.06

> <PUBCHEM_SHAPE_SELFOVERLAP>
352.933

> <PUBCHEM_SHAPE_VOLUME>
136

> <PUBCHEM_COORDINATE_TYPE>
2
5
10

$$$$
