57353762
  -OEChem-11232108433D

 45 45  0     0  0  0  0  0  0999 V2000
   -1.8708    0.8847   -1.7251 O   0  0  0  0  0  0  0  0  0  0  0  0
    3.8766    0.5168    0.2879 C   0  0  0  0  0  0  0  0  0  0  0  0
    3.2015   -0.5670   -0.5528 C   0  0  0  0  0  0  0  0  0  0  0  0
    2.9547    1.5822    0.8931 C   0  0  0  0  0  0  0  0  0  0  0  0
    2.2001   -1.4065    0.2421 C   0  0  0  0  0  0  0  0  0  0  0  0
    2.2677    2.4903   -0.1333 C   0  0  0  0  0  0  0  0  0  0  0  0
    1.6217   -2.5364   -0.6117 C   0  0  0  0  0  0  0  0  0  0  0  0
    0.8353    2.1056   -0.5263 C   0  0  0  0  0  0  0  0  0  0  0  0
    0.6005   -3.4009    0.1353 C   0  0  0  0  0  0  0  0  0  0  0  0
   -0.1469    2.1270    0.6513 C   0  0  0  0  0  0  0  0  0  0  0  0
   -0.6144   -2.6576    0.7037 C   0  0  0  0  0  0  0  0  0  0  0  0
   -1.6053    2.2668    0.2191 C   0  0  0  0  0  0  0  0  0  0  0  0
   -1.4082   -1.8894   -0.3568 C   0  0  0  0  0  0  0  0  0  0  0  0
   -2.1207    1.0546   -0.5325 C   0  0  0  0  0  0  0  0  0  0  0  0
   -2.6202   -1.2310    0.2433 C   0  0  0  0  0  0  0  0  0  0  0  0
   -2.9583    0.0701    0.2153 C   0  0  0  0  0  0  0  0  0  0  0  0
   -4.2130    0.5905    0.8474 C   0  0  0  0  0  0  0  0  0  0  0  0
    4.6348    1.0140   -0.3301 H   0  0  0  0  0  0  0  0  0  0  0  0
    4.4241    0.0332    1.1071 H   0  0  0  0  0  0  0  0  0  0  0  0
    2.7124   -0.1177   -1.4238 H   0  0  0  0  0  0  0  0  0  0  0  0
    3.9845   -1.2268   -0.9478 H   0  0  0  0  0  0  0  0  0  0  0  0
    3.5931    2.2232    1.5162 H   0  0  0  0  0  0  0  0  0  0  0  0
    2.2372    1.1290    1.5828 H   0  0  0  0  0  0  0  0  0  0  0  0
    1.3919   -0.7623    0.5975 H   0  0  0  0  0  0  0  0  0  0  0  0
    2.6908   -1.8310    1.1260 H   0  0  0  0  0  0  0  0  0  0  0  0
    2.8802    2.5614   -1.0403 H   0  0  0  0  0  0  0  0  0  0  0  0
    2.2325    3.5056    0.2836 H   0  0  0  0  0  0  0  0  0  0  0  0
    2.4394   -3.1864   -0.9478 H   0  0  0  0  0  0  0  0  0  0  0  0
    1.1685   -2.1239   -1.5204 H   0  0  0  0  0  0  0  0  0  0  0  0
    0.8210    1.1205   -1.0021 H   0  0  0  0  0  0  0  0  0  0  0  0
    0.5017    2.8229   -1.2869 H   0  0  0  0  0  0  0  0  0  0  0  0
    0.2481   -4.1848   -0.5466 H   0  0  0  0  0  0  0  0  0  0  0  0
    1.1074   -3.9160    0.9608 H   0  0  0  0  0  0  0  0  0  0  0  0
    0.0904    2.9747    1.3057 H   0  0  0  0  0  0  0  0  0  0  0  0
   -0.0278    1.2162    1.2488 H   0  0  0  0  0  0  0  0  0  0  0  0
   -0.2951   -1.9748    1.5004 H   0  0  0  0  0  0  0  0  0  0  0  0
   -1.2684   -3.3970    1.1844 H   0  0  0  0  0  0  0  0  0  0  0  0
   -1.7453    3.1467   -0.4199 H   0  0  0  0  0  0  0  0  0  0  0  0
   -2.2212    2.4399    1.1073 H   0  0  0  0  0  0  0  0  0  0  0  0
   -1.7426   -2.5823   -1.1380 H   0  0  0  0  0  0  0  0  0  0  0  0
   -0.7573   -1.1557   -0.8371 H   0  0  0  0  0  0  0  0  0  0  0  0
   -3.2916   -1.9135    0.7637 H   0  0  0  0  0  0  0  0  0  0  0  0
   -3.9874    1.1232    1.7762 H   0  0  0  0  0  0  0  0  0  0  0  0
   -4.9123   -0.2173    1.0887 H   0  0  0  0  0  0  0  0  0  0  0  0
   -4.7307    1.2763    0.1685 H   0  0  0  0  0  0  0  0  0  0  0  0
  1 14  2  0  0  0  0
  2  3  1  0  0  0  0
  2  4  1  0  0  0  0
  2 18  1  0  0  0  0
  2 19  1  0  0  0  0
  3  5  1  0  0  0  0
  3 20  1  0  0  0  0
  3 21  1  0  0  0  0
  4  6  1  0  0  0  0
  4 22  1  0  0  0  0
  4 23  1  0  0  0  0
  5  7  1  0  0  0  0
  5 24  1  0  0  0  0
  5 25  1  0  0  0  0
  6  8  1  0  0  0  0
  6 26  1  0  0  0  0
  6 27  1  0  0  0  0
  7  9  1  0  0  0  0
  7 28  1  0  0  0  0
  7 29  1  0  0  0  0
  8 10  1  0  0  0  0
  8 30  1  0  0  0  0
  8 31  1  0  0  0  0
  9 11  1  0  0  0  0
  9 32  1  0  0  0  0
  9 33  1  0  0  0  0
 10 12  1  0  0  0  0
 10 34  1  0  0  0  0
 10 35  1  0  0  0  0
 11 13  1  0  0  0  0
 11 36  1  0  0  0  0
 11 37  1  0  0  0  0
 12 14  1  0  0  0  0
 12 38  1  0  0  0  0
 12 39  1  0  0  0  0
 13 15  1  0  0  0  0
 13 40  1  0  0  0  0
 13 41  1  0  0  0  0
 14 16  1  0  0  0  0
 15 16  2  3  0  0  0
 15 42  1  0  0  0  0
 16 17  1  0  0  0  0
 17 43  1  0  0  0  0
 17 44  1  0  0  0  0
 17 45  1  0  0  0  0
M  END
> <PUBCHEM_COMPOUND_CID>
57353762

> <PUBCHEM_CONFORMER_RMSD>
0.6

> <PUBCHEM_CONFORMER_DIVERSEORDER>
1
20
7
22
19
2
14
17
9
5
4
16
12
6
8
23
11
21
3
15
24
18
10
13

> <PUBCHEM_MMFF94_PARTIAL_CHARGES>
8
1 -0.57
12 0.06
13 0.14
14 0.49
15 -0.29
16 -0.12
17 0.14
42 0.15

> <PUBCHEM_EFFECTIVE_ROTOR_COUNT>
2.4

> <PUBCHEM_PHARMACOPHORE_FEATURES>
1
1 1 acceptor

> <PUBCHEM_HEAVY_ATOM_COUNT>
17

> <PUBCHEM_ATOM_DEF_STEREO_COUNT>
0

> <PUBCHEM_ATOM_UDEF_STEREO_COUNT>
0

> <PUBCHEM_BOND_DEF_STEREO_COUNT>
0

> <PUBCHEM_BOND_UDEF_STEREO_COUNT>
1

> <PUBCHEM_ISOTOPIC_ATOM_COUNT>
0

> <PUBCHEM_COMPONENT_COUNT>
1

> <PUBCHEM_CACTVS_TAUTO_COUNT>
5

> <PUBCHEM_CONFORMER_ID>
036B262200000001

> <PUBCHEM_MMFF94_ENERGY>
18.5077

> <PUBCHEM_FEATURE_SELFOVERLAP>
5.074

> <PUBCHEM_SHAPE_FINGERPRINT>
104564 63 17472425821075510572
10616163 171 17832711549002168712
10759866 29 17968098672744119652
10967382 1 18410857616307362914
11370993 70 18339633529414059472
12038231 1 18194684761331998986
12539773 59 17560518404803390961
12596599 1 17703248272320709007
12633257 1 18409162246855425480
13140716 1 18339080505108648562
14178342 30 18125152737272523136
14251705 54 18265056833893078490
14251711 518 18270106920880452046
14251745 187 18198051689316740370
15006816 218 18411421691563197857
18219364 16 18334568019199152359
19930381 70 18338799988200035499
20621476 13 17832695786340239373
21141583 151 18126016961970013590
21249577 43 18410293627019211800
23419403 2 17970062237313237309
238 59 17903032799426011351
3524813 1 18261957340774387166
5282274 181 18264505046691703923

> <PUBCHEM_SHAPE_MULTIPOLES>
343.98
6.18
4.05
0.98
0.21
1.93
-0.16
-1.67
0.87
-1.14
0.17
0.21
-0.17
0.39

> <PUBCHEM_SHAPE_SELFOVERLAP>
656.062

> <PUBCHEM_SHAPE_VOLUME>
209.3

> <PUBCHEM_COORDINATE_TYPE>
2
5
10

$$$$
