57373560
  -OEChem-11232108503D

 22 22  0     1  0  0  0  0  0999 V2000
   -3.3058   -0.8587    0.6235 S   0  0  0  0  0  0  0  0  0  0  0  0
    1.9310   -0.2266    1.0260 O   0  0  0  0  0  0  0  0  0  0  0  0
   -0.8590   -0.6464   -0.1584 O   0  0  0  0  0  0  0  0  0  0  0  0
    0.2934    0.0129   -0.6783 C   0  0  1  0  0  0  0  0  0  0  0  0
    1.0049    0.7248    0.4644 C   0  0  2  0  0  0  0  0  0  0  0  0
    1.3057   -1.0190   -1.1168 C   0  0  0  0  0  0  0  0  0  0  0  0
    1.9636   -1.3944    0.1950 C   0  0  0  0  0  0  0  0  0  0  0  0
    1.8060    1.9339    0.0000 C   0  0  0  0  0  0  0  0  0  0  0  0
   -2.0268    0.0133    0.0067 C   0  0  0  0  0  0  0  0  0  0  0  0
   -2.1130    1.4602   -0.3620 C   0  0  0  0  0  0  0  0  0  0  0  0
    0.0207    0.6615   -1.5157 H   0  0  0  0  0  0  0  0  0  0  0  0
    0.3284    1.0235    1.2712 H   0  0  0  0  0  0  0  0  0  0  0  0
    2.0468   -0.5623   -1.7825 H   0  0  0  0  0  0  0  0  0  0  0  0
    0.8709   -1.8894   -1.6161 H   0  0  0  0  0  0  0  0  0  0  0  0
    1.4060   -2.1857    0.7075 H   0  0  0  0  0  0  0  0  0  0  0  0
    2.9976   -1.7260    0.0659 H   0  0  0  0  0  0  0  0  0  0  0  0
    1.1542    2.6948   -0.4393 H   0  0  0  0  0  0  0  0  0  0  0  0
    2.3423    2.3797    0.8447 H   0  0  0  0  0  0  0  0  0  0  0  0
    2.5660    1.6535   -0.7371 H   0  0  0  0  0  0  0  0  0  0  0  0
   -1.9589    1.5847   -1.4374 H   0  0  0  0  0  0  0  0  0  0  0  0
   -3.1029    1.8675   -0.1288 H   0  0  0  0  0  0  0  0  0  0  0  0
   -1.3854    2.0544    0.1932 H   0  0  0  0  0  0  0  0  0  0  0  0
  1  9  2  0  0  0  0
  2  5  1  0  0  0  0
  2  7  1  0  0  0  0
  3  4  1  0  0  0  0
  3  9  1  0  0  0  0
  4  5  1  0  0  0  0
  4  6  1  0  0  0  0
  4 11  1  0  0  0  0
  5  8  1  0  0  0  0
  5 12  1  0  0  0  0
  6  7  1  0  0  0  0
  6 13  1  0  0  0  0
  6 14  1  0  0  0  0
  7 15  1  0  0  0  0
  7 16  1  0  0  0  0
  8 17  1  0  0  0  0
  8 18  1  0  0  0  0
  8 19  1  0  0  0  0
  9 10  1  0  0  0  0
 10 20  1  0  0  0  0
 10 21  1  0  0  0  0
 10 22  1  0  0  0  0
M  END
> <PUBCHEM_COMPOUND_CID>
57373560

> <PUBCHEM_CONFORMER_RMSD>
0.6

> <PUBCHEM_CONFORMER_DIVERSEORDER>
1
7
36
23
24
30
9
4
27
16
3
37
34
21
35
13
29
17
31
20
11
10
39
6
19
26
25
33
15
28
5
38
12
18
14
22
32
2
8

> <PUBCHEM_MMFF94_PARTIAL_CHARGES>
8
1 -0.38
10 0.06
2 -0.56
3 -0.43
4 0.28
5 0.28
7 0.28
9 0.47

> <PUBCHEM_EFFECTIVE_ROTOR_COUNT>
3

> <PUBCHEM_PHARMACOPHORE_FEATURES>
3
1 1 acceptor
1 2 acceptor
5 2 4 5 6 7 rings

> <PUBCHEM_HEAVY_ATOM_COUNT>
10

> <PUBCHEM_ATOM_DEF_STEREO_COUNT>
0

> <PUBCHEM_ATOM_UDEF_STEREO_COUNT>
2

> <PUBCHEM_BOND_DEF_STEREO_COUNT>
0

> <PUBCHEM_BOND_UDEF_STEREO_COUNT>
0

> <PUBCHEM_ISOTOPIC_ATOM_COUNT>
0

> <PUBCHEM_COMPONENT_COUNT>
1

> <PUBCHEM_CACTVS_TAUTO_COUNT>
1

> <PUBCHEM_CONFORMER_ID>
036B737800000001

> <PUBCHEM_MMFF94_ENERGY>
24.7692

> <PUBCHEM_FEATURE_SELFOVERLAP>
15.223

> <PUBCHEM_SHAPE_FINGERPRINT>
10857977 72 18262804081182183603
12423570 1 12574544811165578606
12932741 1 18260260828950637653
12932764 1 18259993664942197975
14648413 74 18410856512559082377
16945 1 18339631343338664926
19973954 147 18411699855320960065
20653091 64 18411145709886634224
20711985 344 17192365434635170718
21040471 1 17773586312051110094
23552423 10 18259990366180383439
29004967 10 18200028430734842314
3248919 1 17846502521907698491
5084963 1 18131632274868226731

> <PUBCHEM_SHAPE_MULTIPOLES>
197.91
4.21
1.71
0.95
3.28
0.56
0.04
-0.54
-0.8
-0.6
0.06
-0.22
-0.14
0.4

> <PUBCHEM_SHAPE_SELFOVERLAP>
378.094

> <PUBCHEM_SHAPE_VOLUME>
124.5

> <PUBCHEM_COORDINATE_TYPE>
2
5
10

$$$$
