57370186
  -OEChem-11232109023D

 27 26  0     0  0  0  0  0  0999 V2000
   -0.9265    2.9946    0.2383 S   0  0  0  0  0  0  0  0  0  0  0  0
   -1.9248    0.6404    0.2122 O   0  0  0  0  0  0  0  0  0  0  0  0
    2.6990   -0.2471   -0.4440 C   0  0  0  0  0  0  0  0  0  0  0  0
    1.4526    0.3353    0.2251 C   0  0  0  0  0  0  0  0  0  0  0  0
    3.7519   -0.6417    0.5922 C   0  0  0  0  0  0  0  0  0  0  0  0
    0.3576    0.7227   -0.7742 C   0  0  0  0  0  0  0  0  0  0  0  0
    4.9817   -1.2463   -0.0664 C   0  0  0  0  0  0  0  0  0  0  0  0
   -0.8453    1.3648   -0.1269 C   0  0  0  0  0  0  0  0  0  0  0  0
   -2.0000   -0.7755   -0.0178 C   0  0  0  0  0  0  0  0  0  0  0  0
   -3.3207   -1.2714    0.4698 C   0  0  0  0  0  0  0  0  0  0  0  0
   -4.2255   -1.8757   -0.3084 C   0  0  0  0  0  0  0  0  0  0  0  0
    3.1212    0.4893   -1.1383 H   0  0  0  0  0  0  0  0  0  0  0  0
    2.4175   -1.1262   -1.0362 H   0  0  0  0  0  0  0  0  0  0  0  0
    1.7402    1.2148    0.8146 H   0  0  0  0  0  0  0  0  0  0  0  0
    1.0465   -0.3910    0.9398 H   0  0  0  0  0  0  0  0  0  0  0  0
    4.0500    0.2383    1.1739 H   0  0  0  0  0  0  0  0  0  0  0  0
    3.3286   -1.3680    1.2959 H   0  0  0  0  0  0  0  0  0  0  0  0
    0.0641   -0.1482   -1.3660 H   0  0  0  0  0  0  0  0  0  0  0  0
    0.7737    1.4306   -1.5038 H   0  0  0  0  0  0  0  0  0  0  0  0
    4.7219   -2.1486   -0.6291 H   0  0  0  0  0  0  0  0  0  0  0  0
    5.7217   -1.5203    0.6920 H   0  0  0  0  0  0  0  0  0  0  0  0
    5.4480   -0.5341   -0.7546 H   0  0  0  0  0  0  0  0  0  0  0  0
   -1.8895   -0.9747   -1.0891 H   0  0  0  0  0  0  0  0  0  0  0  0
   -1.2004   -1.2785    0.5352 H   0  0  0  0  0  0  0  0  0  0  0  0
   -3.5490   -1.1317    1.5231 H   0  0  0  0  0  0  0  0  0  0  0  0
   -5.1676   -2.2157    0.1075 H   0  0  0  0  0  0  0  0  0  0  0  0
   -4.0464   -2.0414   -1.3650 H   0  0  0  0  0  0  0  0  0  0  0  0
  1  8  2  0  0  0  0
  2  8  1  0  0  0  0
  2  9  1  0  0  0  0
  3  4  1  0  0  0  0
  3  5  1  0  0  0  0
  3 12  1  0  0  0  0
  3 13  1  0  0  0  0
  4  6  1  0  0  0  0
  4 14  1  0  0  0  0
  4 15  1  0  0  0  0
  5  7  1  0  0  0  0
  5 16  1  0  0  0  0
  5 17  1  0  0  0  0
  6  8  1  0  0  0  0
  6 18  1  0  0  0  0
  6 19  1  0  0  0  0
  7 20  1  0  0  0  0
  7 21  1  0  0  0  0
  7 22  1  0  0  0  0
  9 10  1  0  0  0  0
  9 23  1  0  0  0  0
  9 24  1  0  0  0  0
 10 11  2  0  0  0  0
 10 25  1  0  0  0  0
 11 26  1  0  0  0  0
 11 27  1  0  0  0  0
M  END
> <PUBCHEM_COMPOUND_CID>
57370186

> <PUBCHEM_CONFORMER_RMSD>
0.8

> <PUBCHEM_CONFORMER_DIVERSEORDER>
1
73
154
112
74
55
157
104
107
158
80
143
140
95
101
25
39
35
142
63
113
93
69
150
100
151
10
21
132
121
65
16
131
51
122
50
106
82
14
75
78
87
128
124
30
149
11
66
64
57
141
116
83
139
42
27
135
9
37
56
20
156
71
111
105
89
146
72
133
144
96
137
6
123
53
52
40
91
84
136
76
49
77
17
134
15
33
32
152
90
145
109
61
119
62
86
19
60
92
94
115
41
2
31
148
98
47
24
129
12
126
70
34
108
26
127
3
59
99
43
81
88
110
13
118
18
147
23
79
117
97
38
153
155
22
125
85
68
48
138
114
58
4
29
5
120
44
36
102
67
45
54
130
28
8
7
46
103

> <PUBCHEM_MMFF94_PARTIAL_CHARGES>
10
1 -0.38
10 -0.29
11 -0.3
2 -0.43
25 0.15
26 0.15
27 0.15
6 0.06
8 0.47
9 0.42

> <PUBCHEM_EFFECTIVE_ROTOR_COUNT>
7

> <PUBCHEM_PHARMACOPHORE_FEATURES>
4
1 1 acceptor
1 11 hydrophobe
1 7 hydrophobe
4 3 4 5 6 hydrophobe

> <PUBCHEM_HEAVY_ATOM_COUNT>
11

> <PUBCHEM_ATOM_DEF_STEREO_COUNT>
0

> <PUBCHEM_ATOM_UDEF_STEREO_COUNT>
0

> <PUBCHEM_BOND_DEF_STEREO_COUNT>
0

> <PUBCHEM_BOND_UDEF_STEREO_COUNT>
0

> <PUBCHEM_ISOTOPIC_ATOM_COUNT>
0

> <PUBCHEM_COMPONENT_COUNT>
1

> <PUBCHEM_CACTVS_TAUTO_COUNT>
1

> <PUBCHEM_CONFORMER_ID>
036B664A00000001

> <PUBCHEM_MMFF94_ENERGY>
10.6212

> <PUBCHEM_FEATURE_SELFOVERLAP>
20.298

> <PUBCHEM_SHAPE_FINGERPRINT>
11357001 24 18339361855557947513
177051 138 18408885144340233126
17834072 8 18186791483953536063
20645477 70 17975686509798826415
20671657 53 17531247291784016295
20724930 33 18408887317182312780
20871998 184 18201718418603061165
20871998 22 18339356499897363729
21061003 4 17132108031298931816
21426921 1 18337672993139913708
23402539 116 18409726248838756150
23526113 38 17823979159166906617
3086196 2 18411698751350711360

> <PUBCHEM_SHAPE_MULTIPOLES>
224.36
8.47
2.56
0.77
5.93
2.01
-0.02
-8.1
0.43
-2.28
0.16
0.09
0.01
-0.18

> <PUBCHEM_SHAPE_SELFOVERLAP>
397.775

> <PUBCHEM_SHAPE_VOLUME>
146.9

> <PUBCHEM_COORDINATE_TYPE>
2
5
10

$$$$
