574068
  -OEChem-11232109193D

 26 26  0     0  0  0  0  0  0999 V2000
   -0.4372    1.0649   -0.4378 O   0  0  0  0  0  0  0  0  0  0  0  0
   -0.4565   -1.1948   -0.3464 N   0  0  0  0  0  0  0  0  0  0  0  0
    2.6687    0.0972   -0.0476 C   0  0  0  0  0  0  0  0  0  0  0  0
    1.5966    0.0028   -1.1510 C   0  0  0  0  0  0  0  0  0  0  0  0
    0.1870   -0.1116   -0.6239 C   0  0  0  0  0  0  0  0  0  0  0  0
    2.4079    1.2647    0.9077 C   0  0  0  0  0  0  0  0  0  0  0  0
    2.7166   -1.2134    0.7418 C   0  0  0  0  0  0  0  0  0  0  0  0
   -1.6556    0.6701    0.0258 C   0  0  0  0  0  0  0  0  0  0  0  0
   -1.6631   -0.7015    0.0796 C   0  0  0  0  0  0  0  0  0  0  0  0
   -2.6230    1.7256    0.3446 C   0  0  0  0  0  0  0  0  0  0  0  0
   -2.7415   -1.6039    0.5071 C   0  0  0  0  0  0  0  0  0  0  0  0
    3.6418    0.2482   -0.5308 H   0  0  0  0  0  0  0  0  0  0  0  0
    1.8008   -0.8608   -1.7959 H   0  0  0  0  0  0  0  0  0  0  0  0
    1.6614    0.8901   -1.7936 H   0  0  0  0  0  0  0  0  0  0  0  0
    1.5066    1.1166    1.5112 H   0  0  0  0  0  0  0  0  0  0  0  0
    2.3034    2.2040    0.3546 H   0  0  0  0  0  0  0  0  0  0  0  0
    3.2482    1.3804    1.6011 H   0  0  0  0  0  0  0  0  0  0  0  0
    3.5496   -1.1965    1.4534 H   0  0  0  0  0  0  0  0  0  0  0  0
    1.8007   -1.3874    1.3157 H   0  0  0  0  0  0  0  0  0  0  0  0
    2.8711   -2.0678    0.0744 H   0  0  0  0  0  0  0  0  0  0  0  0
   -3.5637    1.3061    0.7140 H   0  0  0  0  0  0  0  0  0  0  0  0
   -2.2242    2.3918    1.1158 H   0  0  0  0  0  0  0  0  0  0  0  0
   -2.8456    2.3239   -0.5443 H   0  0  0  0  0  0  0  0  0  0  0  0
   -2.4318   -2.6513    0.4350 H   0  0  0  0  0  0  0  0  0  0  0  0
   -3.0212   -1.4060    1.5466 H   0  0  0  0  0  0  0  0  0  0  0  0
   -3.6283   -1.4706   -0.1204 H   0  0  0  0  0  0  0  0  0  0  0  0
  1  5  1  0  0  0  0
  1  8  1  0  0  0  0
  2  5  2  0  0  0  0
  2  9  1  0  0  0  0
  3  4  1  0  0  0  0
  3  6  1  0  0  0  0
  3  7  1  0  0  0  0
  3 12  1  0  0  0  0
  4  5  1  0  0  0  0
  4 13  1  0  0  0  0
  4 14  1  0  0  0  0
  6 15  1  0  0  0  0
  6 16  1  0  0  0  0
  6 17  1  0  0  0  0
  7 18  1  0  0  0  0
  7 19  1  0  0  0  0
  7 20  1  0  0  0  0
  8  9  2  0  0  0  0
  8 10  1  0  0  0  0
  9 11  1  0  0  0  0
 10 21  1  0  0  0  0
 10 22  1  0  0  0  0
 10 23  1  0  0  0  0
 11 24  1  0  0  0  0
 11 25  1  0  0  0  0
 11 26  1  0  0  0  0
M  END
> <PUBCHEM_COMPOUND_CID>
574068

> <PUBCHEM_CONFORMER_RMSD>
0.4

> <PUBCHEM_CONFORMER_DIVERSEORDER>
2
8
1
5
6
7
4
3

> <PUBCHEM_MMFF94_PARTIAL_CHARGES>
8
1 -0.28
10 0.18
11 0.18
2 -0.57
4 0.18
5 0.3
8 -0.04
9 0.05

> <PUBCHEM_EFFECTIVE_ROTOR_COUNT>
2

> <PUBCHEM_PHARMACOPHORE_FEATURES>
2
3 3 6 7 hydrophobe
5 1 2 5 8 9 rings

> <PUBCHEM_HEAVY_ATOM_COUNT>
11

> <PUBCHEM_ATOM_DEF_STEREO_COUNT>
0

> <PUBCHEM_ATOM_UDEF_STEREO_COUNT>
0

> <PUBCHEM_BOND_DEF_STEREO_COUNT>
0

> <PUBCHEM_BOND_UDEF_STEREO_COUNT>
0

> <PUBCHEM_ISOTOPIC_ATOM_COUNT>
0

> <PUBCHEM_COMPONENT_COUNT>
1

> <PUBCHEM_CACTVS_TAUTO_COUNT>
2

> <PUBCHEM_CONFORMER_ID>
0008C27400000002

> <PUBCHEM_MMFF94_ENERGY>
6.3992

> <PUBCHEM_FEATURE_SELFOVERLAP>
10.148

> <PUBCHEM_SHAPE_FINGERPRINT>
10857977 72 18340209707913926251
12251169 10 18336264539913328320
12423570 1 11532773718736827541
12932764 1 17988647431979802558
15775835 57 18335988571227148464
16945 1 18267305528466527311
19973954 147 18272653458672204608
20361792 2 15936404520718133222
20645464 45 18060422404247698518
20715346 28 18060426815142201340
20871998 184 18271250507736861231
21040471 1 18193292796928396909
22445834 79 18113896014109157914
23552423 10 18040724700606969774
2748010 2 18342465828464731165
29004967 10 14273459192969556924
3248919 1 17313388962761196370
369184 2 18412820300323586935
5084963 1 17967812743137373278
8030462 33 18334577974970462686

> <PUBCHEM_SHAPE_MULTIPOLES>
215.52
4.71
1.7
0.95
0.61
0.08
-0.05
-0.11
1.24
-0.91
0.38
0.44
0.01
0.11

> <PUBCHEM_SHAPE_SELFOVERLAP>
431.313

> <PUBCHEM_SHAPE_VOLUME>
129.7

> <PUBCHEM_COORDINATE_TYPE>
2
5
10

$$$$
