57429407
  -OEChem-11232111213D

 32 32  0     0  0  0  0  0  0999 V2000
    4.9138   -0.9342    0.5446 O   0  0  0  0  0  0  0  0  0  0  0  0
   -2.6776   -0.8154   -0.0155 C   0  0  0  0  0  0  0  0  0  0  0  0
   -1.4915    0.1624    0.0248 C   0  0  0  0  0  0  0  0  0  0  0  0
   -3.3679   -0.7380   -1.3945 C   0  0  0  0  0  0  0  0  0  0  0  0
   -3.6960   -0.4427    1.0837 C   0  0  0  0  0  0  0  0  0  0  0  0
   -2.2793   -2.2912    0.2132 C   0  0  0  0  0  0  0  0  0  0  0  0
   -0.2006   -0.3154    0.2508 C   0  0  0  0  0  0  0  0  0  0  0  0
    0.8752    0.5716    0.2868 C   0  0  0  0  0  0  0  0  0  0  0  0
   -1.7065    1.5275   -0.1655 C   0  0  0  0  0  0  0  0  0  0  0  0
    2.2553    0.0609    0.5285 C   0  0  0  0  0  0  0  0  0  0  0  0
    0.6602    1.9368    0.0966 C   0  0  0  0  0  0  0  0  0  0  0  0
   -0.6306    2.4146   -0.1298 C   0  0  0  0  0  0  0  0  0  0  0  0
    2.9749   -0.3032   -0.7736 C   0  0  0  0  0  0  0  0  0  0  0  0
    4.3706   -0.8335   -0.5503 C   0  0  0  0  0  0  0  0  0  0  0  0
   -4.1971   -1.4520   -1.4621 H   0  0  0  0  0  0  0  0  0  0  0  0
   -3.7842    0.2553   -1.5948 H   0  0  0  0  0  0  0  0  0  0  0  0
   -2.6628   -0.9683   -2.2021 H   0  0  0  0  0  0  0  0  0  0  0  0
   -4.5361   -1.1469    1.0995 H   0  0  0  0  0  0  0  0  0  0  0  0
   -3.2291   -0.4583    2.0757 H   0  0  0  0  0  0  0  0  0  0  0  0
   -4.1195    0.5567    0.9353 H   0  0  0  0  0  0  0  0  0  0  0  0
   -3.1600   -2.9442    0.1752 H   0  0  0  0  0  0  0  0  0  0  0  0
   -1.5865   -2.6508   -0.5567 H   0  0  0  0  0  0  0  0  0  0  0  0
   -1.8171   -2.4414    1.1960 H   0  0  0  0  0  0  0  0  0  0  0  0
    0.0095   -1.3689    0.4008 H   0  0  0  0  0  0  0  0  0  0  0  0
   -2.7009    1.9261   -0.3436 H   0  0  0  0  0  0  0  0  0  0  0  0
    2.2191   -0.8132    1.1924 H   0  0  0  0  0  0  0  0  0  0  0  0
    2.8383    0.8113    1.0790 H   0  0  0  0  0  0  0  0  0  0  0  0
    1.4902    2.6380    0.1204 H   0  0  0  0  0  0  0  0  0  0  0  0
   -0.7977    3.4774   -0.2786 H   0  0  0  0  0  0  0  0  0  0  0  0
    3.0567    0.5725   -1.4275 H   0  0  0  0  0  0  0  0  0  0  0  0
    2.4162   -1.0738   -1.3173 H   0  0  0  0  0  0  0  0  0  0  0  0
    4.9057   -1.1332   -1.4679 H   0  0  0  0  0  0  0  0  0  0  0  0
  1 14  2  0  0  0  0
  2  3  1  0  0  0  0
  2  4  1  0  0  0  0
  2  5  1  0  0  0  0
  2  6  1  0  0  0  0
  3  7  1  0  0  0  0
  3  9  2  0  0  0  0
  4 15  1  0  0  0  0
  4 16  1  0  0  0  0
  4 17  1  0  0  0  0
  5 18  1  0  0  0  0
  5 19  1  0  0  0  0
  5 20  1  0  0  0  0
  6 21  1  0  0  0  0
  6 22  1  0  0  0  0
  6 23  1  0  0  0  0
  7  8  2  0  0  0  0
  7 24  1  0  0  0  0
  8 10  1  0  0  0  0
  8 11  1  0  0  0  0
  9 12  1  0  0  0  0
  9 25  1  0  0  0  0
 10 13  1  0  0  0  0
 10 26  1  0  0  0  0
 10 27  1  0  0  0  0
 11 12  2  0  0  0  0
 11 28  1  0  0  0  0
 12 29  1  0  0  0  0
 13 14  1  0  0  0  0
 13 30  1  0  0  0  0
 13 31  1  0  0  0  0
 14 32  1  0  0  0  0
M  END
> <PUBCHEM_COMPOUND_CID>
57429407

> <PUBCHEM_CONFORMER_RMSD>
0.6

> <PUBCHEM_CONFORMER_DIVERSEORDER>
1
21
18
12
20
16
22
13
5
9
10
15
14
6
19
11
17
7
3
4
8
2

> <PUBCHEM_MMFF94_PARTIAL_CHARGES>
16
1 -0.57
10 0.14
11 -0.15
12 -0.15
13 0.06
14 0.45
2 0.14
24 0.15
25 0.15
28 0.15
29 0.15
3 -0.14
32 0.06
7 -0.15
8 -0.14
9 -0.15

> <PUBCHEM_EFFECTIVE_ROTOR_COUNT>
4

> <PUBCHEM_PHARMACOPHORE_FEATURES>
3
1 1 acceptor
4 2 4 5 6 hydrophobe
6 3 7 8 9 11 12 rings

> <PUBCHEM_HEAVY_ATOM_COUNT>
14

> <PUBCHEM_ATOM_DEF_STEREO_COUNT>
0

> <PUBCHEM_ATOM_UDEF_STEREO_COUNT>
0

> <PUBCHEM_BOND_DEF_STEREO_COUNT>
0

> <PUBCHEM_BOND_UDEF_STEREO_COUNT>
0

> <PUBCHEM_ISOTOPIC_ATOM_COUNT>
0

> <PUBCHEM_COMPONENT_COUNT>
1

> <PUBCHEM_CACTVS_TAUTO_COUNT>
2

> <PUBCHEM_CONFORMER_ID>
036C4D9F00000001

> <PUBCHEM_MMFF94_ENERGY>
37.7479

> <PUBCHEM_FEATURE_SELFOVERLAP>
15.223

> <PUBCHEM_SHAPE_FINGERPRINT>
11127187 94 18187361047613287023
11543360 7 15502381161707271066
11769659 78 17988923426488449197
12032990 46 18408889572024072139
12553582 1 18408600366090781402
12932764 1 17531795991542416227
14911166 2 18334847325655267479
16752209 62 18189879964238081635
16945 1 18334848450825987505
17804303 29 18343308067193316201
18186145 218 17240481441887471172
19141452 34 17988927769006639471
200 152 17894631440005705746
20281475 54 18339647857313877164
20645477 70 18049149266611612343
20671657 53 18337109063559318237
20871998 184 18200596891020515452
20871998 22 18266739258503646081
20871999 31 18335133155275467077
21069387 34 17987506186592687599
22213442 358 18411702127374276108
22959321 94 18408321077721818818
23402539 116 18335979788240489766
23557571 272 18129956572398838788
23559900 14 18268705027324246802
27216 239 10663817498820609135
2748010 2 18046618186338027209
3286 77 16773223106523359883
559249 180 17898000232069888362
7364860 26 18054791959699932648
81228 2 18338797814704185537
83771 10 18341898497644667592
8809292 202 18261959642787310419

> <PUBCHEM_SHAPE_MULTIPOLES>
282.24
7.49
2.1
0.96
7.52
0.77
-0.13
-4.62
-0.21
-0.79
-0.02
-0.46
-0.18
0.07

> <PUBCHEM_SHAPE_SELFOVERLAP>
571.018

> <PUBCHEM_SHAPE_VOLUME>
165.6

> <PUBCHEM_COORDINATE_TYPE>
2
5
10

$$$$
