5744267
  -OEChem-11232109213D

 35 35  0     0  0  0  0  0  0999 V2000
    1.7579   -1.1514   -0.3204 O   0  0  0  0  0  0  0  0  0  0  0  0
    0.4722   -2.8508    0.5721 O   0  0  0  0  0  0  0  0  0  0  0  0
    4.1378   -1.1626   -0.6897 C   0  0  0  0  0  0  0  0  0  0  0  0
    2.9308   -1.9431   -0.1830 C   0  0  0  0  0  0  0  0  0  0  0  0
    4.3599    0.0943    0.1035 C   0  0  0  0  0  0  0  0  0  0  0  0
    4.5679    2.5793    0.3636 C   0  0  0  0  0  0  0  0  0  0  0  0
    4.3375    1.3259   -0.4274 C   0  0  0  0  0  0  0  0  0  0  0  0
    3.2644    3.1308    0.9198 C   0  0  0  0  0  0  0  0  0  0  0  0
   -2.9292   -0.2241    0.0610 C   0  0  0  0  0  0  0  0  0  0  0  0
   -1.7554   -1.1002    0.2214 C   0  0  0  0  0  0  0  0  0  0  0  0
    0.5963   -1.7326    0.0982 C   0  0  0  0  0  0  0  0  0  0  0  0
   -2.8687    0.8345   -0.8309 C   0  0  0  0  0  0  0  0  0  0  0  0
   -4.0705   -0.4756    0.8051 C   0  0  0  0  0  0  0  0  0  0  0  0
   -0.5035   -0.7664   -0.1232 C   0  0  0  0  0  0  0  0  0  0  0  0
   -3.9797    1.6642   -0.9826 C   0  0  0  0  0  0  0  0  0  0  0  0
   -5.1816    0.3540    0.6532 C   0  0  0  0  0  0  0  0  0  0  0  0
   -5.1361    1.4239   -0.2407 C   0  0  0  0  0  0  0  0  0  0  0  0
    5.0347   -1.7881   -0.6193 H   0  0  0  0  0  0  0  0  0  0  0  0
    3.9900   -0.9186   -1.7488 H   0  0  0  0  0  0  0  0  0  0  0  0
    2.8210   -2.8604   -0.7734 H   0  0  0  0  0  0  0  0  0  0  0  0
    3.0693   -2.2161    0.8704 H   0  0  0  0  0  0  0  0  0  0  0  0
    4.5665   -0.0246    1.1644 H   0  0  0  0  0  0  0  0  0  0  0  0
    5.2626    2.3864    1.1898 H   0  0  0  0  0  0  0  0  0  0  0  0
    5.0471    3.3256   -0.2800 H   0  0  0  0  0  0  0  0  0  0  0  0
    4.1257    1.4495   -1.4864 H   0  0  0  0  0  0  0  0  0  0  0  0
    3.4528    4.0533    1.4782 H   0  0  0  0  0  0  0  0  0  0  0  0
    2.7873    2.4165    1.5996 H   0  0  0  0  0  0  0  0  0  0  0  0
    2.5568    3.3609    0.1160 H   0  0  0  0  0  0  0  0  0  0  0  0
   -1.9588   -2.0732    0.6631 H   0  0  0  0  0  0  0  0  0  0  0  0
   -1.9987    1.0461   -1.4445 H   0  0  0  0  0  0  0  0  0  0  0  0
   -4.1210   -1.3042    1.5066 H   0  0  0  0  0  0  0  0  0  0  0  0
   -0.2341    0.1963   -0.5417 H   0  0  0  0  0  0  0  0  0  0  0  0
   -3.9468    2.4945   -1.6822 H   0  0  0  0  0  0  0  0  0  0  0  0
   -6.0821    0.1672    1.2308 H   0  0  0  0  0  0  0  0  0  0  0  0
   -6.0016    2.0691   -0.3598 H   0  0  0  0  0  0  0  0  0  0  0  0
  1  4  1  0  0  0  0
  1 11  1  0  0  0  0
  2 11  2  0  0  0  0
  3  4  1  0  0  0  0
  3  5  1  0  0  0  0
  3 18  1  0  0  0  0
  3 19  1  0  0  0  0
  4 20  1  0  0  0  0
  4 21  1  0  0  0  0
  5  7  2  0  0  0  0
  5 22  1  0  0  0  0
  6  7  1  0  0  0  0
  6  8  1  0  0  0  0
  6 23  1  0  0  0  0
  6 24  1  0  0  0  0
  7 25  1  0  0  0  0
  8 26  1  0  0  0  0
  8 27  1  0  0  0  0
  8 28  1  0  0  0  0
  9 10  1  0  0  0  0
  9 12  2  0  0  0  0
  9 13  1  0  0  0  0
 10 14  2  0  0  0  0
 10 29  1  0  0  0  0
 11 14  1  0  0  0  0
 12 15  1  0  0  0  0
 12 30  1  0  0  0  0
 13 16  2  0  0  0  0
 13 31  1  0  0  0  0
 14 32  1  0  0  0  0
 15 17  2  0  0  0  0
 15 33  1  0  0  0  0
 16 17  1  0  0  0  0
 16 34  1  0  0  0  0
 17 35  1  0  0  0  0
M  END
> <PUBCHEM_COMPOUND_CID>
5744267

> <PUBCHEM_CONFORMER_RMSD>
0.8

> <PUBCHEM_CONFORMER_DIVERSEORDER>
1
85
5
19
3
56
80
76
50
75
10
7
86
8
64
62
33
90
58
15
84
87
17
49
51
16
30
73
35
57
34
23
38
40
60
41
83
31
79
46
12
52
70
20
89
13
55
72
45
2
65
6
68
47
69
63
14
21
53
37
18
24
36
66
42
4
77
9
26
54
32
74
59
28
27
29
11
78
82
81
39
71
44
43
67
61
22
88
25
48

> <PUBCHEM_MMFF94_PARTIAL_CHARGES>
25
1 -0.43
10 -0.18
11 0.71
12 -0.15
13 -0.15
14 -0.14
15 -0.15
16 -0.15
17 -0.15
2 -0.57
22 0.15
25 0.15
29 0.15
3 0.14
30 0.15
31 0.15
32 0.15
33 0.15
34 0.15
35 0.15
4 0.28
5 -0.29
6 0.14
7 -0.29
9 0.03

> <PUBCHEM_EFFECTIVE_ROTOR_COUNT>
7

> <PUBCHEM_PHARMACOPHORE_FEATURES>
3
1 2 acceptor
1 8 hydrophobe
6 9 12 13 15 16 17 rings

> <PUBCHEM_HEAVY_ATOM_COUNT>
17

> <PUBCHEM_ATOM_DEF_STEREO_COUNT>
0

> <PUBCHEM_ATOM_UDEF_STEREO_COUNT>
0

> <PUBCHEM_BOND_DEF_STEREO_COUNT>
2

> <PUBCHEM_BOND_UDEF_STEREO_COUNT>
0

> <PUBCHEM_ISOTOPIC_ATOM_COUNT>
0

> <PUBCHEM_COMPONENT_COUNT>
1

> <PUBCHEM_CACTVS_TAUTO_COUNT>
1

> <PUBCHEM_CONFORMER_ID>
0057A68B00000001

> <PUBCHEM_MMFF94_ENERGY>
29.6585

> <PUBCHEM_FEATURE_SELFOVERLAP>
15.223

> <PUBCHEM_SHAPE_FINGERPRINT>
11595378 159 16226037856194923277
11858739 19 9151174229673380843
12769317 202 18342168973484556872
12925494 130 18264487291925552373
13081056 2 18335707104555672207
13402501 40 18408322194492729268
13955234 65 18190744137254716282
14251764 75 18123758809810546392
14252887 29 9295280634667977046
14528608 73 18412824685706963391
14848178 96 18413105087015858872
15342816 4 12895076185100167654
16079462 125 17676762077401716693
1768 85 18269562796022020369
17834072 32 18412261774397444562
17870717 6 12607403287192396781
17959699 21 18342739576779529857
20554085 129 16660353763436340753
20621476 13 18270116954494105432
20645477 56 18261116253213322015
21033650 10 14404645206634967570
23227448 37 18341611572238602543
23559900 14 18265331694605147746
2916195 48 18408040727604325507
3014063 31 18341050735799915864
34797466 226 18059863848473323151
474 4 18343022198728851338
5104073 3 17896044243833404027
5312510 48 18341330011637294001
633830 44 18412539899210572102
7808743 9 17970921192007150212
960060 61 12319736990369999874

> <PUBCHEM_SHAPE_MULTIPOLES>
338.11
12.99
3.08
0.9
2.39
0.99
0.02
7.79
-0.03
-3.99
-0.53
0.31
0.23
1.57

> <PUBCHEM_SHAPE_SELFOVERLAP>
679.678

> <PUBCHEM_SHAPE_VOLUME>
197.7

> <PUBCHEM_COORDINATE_TYPE>
2
5
10

$$$$
