57495095
  -OEChem-11232109173D

 37 37  0     0  0  0  0  0  0999 V2000
    1.1799   -0.7817   -1.3444 O   0  0  0  0  0  0  0  0  0  0  0  0
    0.2818    0.2568    0.5482 N   0  0  0  0  0  0  0  0  0  0  0  0
    2.7730    0.2160    0.1366 C   0  0  0  0  0  0  0  0  0  0  0  0
    3.4589    1.1584   -0.8757 C   0  0  0  0  0  0  0  0  0  0  0  0
    3.5970   -1.0717    0.3551 C   0  0  0  0  0  0  0  0  0  0  0  0
    1.3394   -0.1518   -0.2931 C   0  0  0  0  0  0  0  0  0  0  0  0
    2.6903    2.4610   -1.0684 C   0  0  0  0  0  0  0  0  0  0  0  0
    3.0369   -2.0209    1.4083 C   0  0  0  0  0  0  0  0  0  0  0  0
   -1.0752   -0.0772    0.1652 C   0  0  0  0  0  0  0  0  0  0  0  0
    0.4948    1.0064    1.7961 C   0  0  0  0  0  0  0  0  0  0  0  0
   -2.1305    0.7566    0.5350 C   0  0  0  0  0  0  0  0  0  0  0  0
   -1.3259   -1.2336   -0.5739 C   0  0  0  0  0  0  0  0  0  0  0  0
   -3.4365    0.4342    0.1660 C   0  0  0  0  0  0  0  0  0  0  0  0
   -2.6319   -1.5558   -0.9431 C   0  0  0  0  0  0  0  0  0  0  0  0
   -3.6873   -0.7221   -0.5731 C   0  0  0  0  0  0  0  0  0  0  0  0
   -4.5647    1.3255    0.5613 C   0  0  0  0  0  0  0  0  0  0  0  0
    2.7830    0.7522    1.0860 H   0  0  0  0  0  0  0  0  0  0  0  0
    4.4737    1.3905   -0.5315 H   0  0  0  0  0  0  0  0  0  0  0  0
    3.5548    0.6586   -1.8471 H   0  0  0  0  0  0  0  0  0  0  0  0
    4.6170   -0.7948    0.6496 H   0  0  0  0  0  0  0  0  0  0  0  0
    3.6847   -1.6189   -0.5920 H   0  0  0  0  0  0  0  0  0  0  0  0
    1.6984    2.2851   -1.4955 H   0  0  0  0  0  0  0  0  0  0  0  0
    3.2352    3.1185   -1.7534 H   0  0  0  0  0  0  0  0  0  0  0  0
    2.5704    2.9895   -0.1176 H   0  0  0  0  0  0  0  0  0  0  0  0
    2.0547   -2.4066    1.1193 H   0  0  0  0  0  0  0  0  0  0  0  0
    3.7072   -2.8765    1.5381 H   0  0  0  0  0  0  0  0  0  0  0  0
    2.9400   -1.5163    2.3746 H   0  0  0  0  0  0  0  0  0  0  0  0
    1.2766    0.5215    2.3867 H   0  0  0  0  0  0  0  0  0  0  0  0
   -0.3956    1.0178    2.4297 H   0  0  0  0  0  0  0  0  0  0  0  0
    0.7963    2.0277    1.5484 H   0  0  0  0  0  0  0  0  0  0  0  0
   -1.9585    1.6790    1.0832 H   0  0  0  0  0  0  0  0  0  0  0  0
   -0.5686   -1.9726   -0.8098 H   0  0  0  0  0  0  0  0  0  0  0  0
   -2.8307   -2.4674   -1.4993 H   0  0  0  0  0  0  0  0  0  0  0  0
   -4.7006   -0.9887   -0.8613 H   0  0  0  0  0  0  0  0  0  0  0  0
   -4.8674    1.1140    1.5917 H   0  0  0  0  0  0  0  0  0  0  0  0
   -4.2744    2.3790    0.4866 H   0  0  0  0  0  0  0  0  0  0  0  0
   -5.4336    1.1854   -0.0908 H   0  0  0  0  0  0  0  0  0  0  0  0
  1  6  2  0  0  0  0
  2  6  1  0  0  0  0
  2  9  1  0  0  0  0
  2 10  1  0  0  0  0
  3  4  1  0  0  0  0
  3  5  1  0  0  0  0
  3  6  1  0  0  0  0
  3 17  1  0  0  0  0
  4  7  1  0  0  0  0
  4 18  1  0  0  0  0
  4 19  1  0  0  0  0
  5  8  1  0  0  0  0
  5 20  1  0  0  0  0
  5 21  1  0  0  0  0
  7 22  1  0  0  0  0
  7 23  1  0  0  0  0
  7 24  1  0  0  0  0
  8 25  1  0  0  0  0
  8 26  1  0  0  0  0
  8 27  1  0  0  0  0
  9 11  1  0  0  0  0
  9 12  2  0  0  0  0
 10 28  1  0  0  0  0
 10 29  1  0  0  0  0
 10 30  1  0  0  0  0
 11 13  2  0  0  0  0
 11 31  1  0  0  0  0
 12 14  1  0  0  0  0
 12 32  1  0  0  0  0
 13 15  1  0  0  0  0
 13 16  1  0  0  0  0
 14 15  2  0  0  0  0
 14 33  1  0  0  0  0
 15 34  1  0  0  0  0
 16 35  1  0  0  0  0
 16 36  1  0  0  0  0
 16 37  1  0  0  0  0
M  END
> <PUBCHEM_COMPOUND_CID>
57495095

> <PUBCHEM_CONFORMER_RMSD>
0.6

> <PUBCHEM_CONFORMER_DIVERSEORDER>
36
31
14
101
90
99
98
37
44
62
123
95
86
41
119
9
17
100
96
82
21
66
5
84
52
125
18
130
63
33
1
94
127
73
111
121
15
126
83
6
113
42
88
81
106
47
91
57
78
85
105
103
7
97
112
59
45
120
53
110
56
43
89
76
128
29
75
39
122
102
104
61
8
2
16
24
54
115
74
10
38
131
48
11
118
65
30
64
92
46
55
19
124
60
35
68
87
129
32
109
77
28
116
13
108
20
58
34
67
70
4
71
25
107
51
40
22
114
69
72
12
117
27
50
80
49
26
23
93
3
79

> <PUBCHEM_MMFF94_PARTIAL_CHARGES>
16
1 -0.57
10 0.3
11 -0.15
12 -0.15
13 -0.14
14 -0.15
15 -0.15
16 0.14
2 -0.48
3 0.06
31 0.15
32 0.15
33 0.15
34 0.15
6 0.57
9 0.12

> <PUBCHEM_EFFECTIVE_ROTOR_COUNT>
5

> <PUBCHEM_PHARMACOPHORE_FEATURES>
4
1 1 acceptor
1 7 hydrophobe
1 8 hydrophobe
6 9 11 12 13 14 15 rings

> <PUBCHEM_HEAVY_ATOM_COUNT>
16

> <PUBCHEM_ATOM_DEF_STEREO_COUNT>
0

> <PUBCHEM_ATOM_UDEF_STEREO_COUNT>
0

> <PUBCHEM_BOND_DEF_STEREO_COUNT>
0

> <PUBCHEM_BOND_UDEF_STEREO_COUNT>
0

> <PUBCHEM_ISOTOPIC_ATOM_COUNT>
0

> <PUBCHEM_COMPONENT_COUNT>
1

> <PUBCHEM_CACTVS_TAUTO_COUNT>
1

> <PUBCHEM_CONFORMER_ID>
036D4E3700000024

> <PUBCHEM_MMFF94_ENERGY>
52.9219

> <PUBCHEM_FEATURE_SELFOVERLAP>
20.297

> <PUBCHEM_SHAPE_FINGERPRINT>
10062212 137 18272923917263561831
10130415 120 18272927202565143474
10465860 71 17274277160950392060
11132069 177 17632293441469558963
12236239 1 18413670215029012186
12707595 3 16773801449481334049
13296908 3 15791725304298649847
13583140 156 18041577891850365153
13760787 19 18411140255178155734
14115302 16 18202567254554224568
14289901 80 18189336930011225243
14957384 54 17823969036129989157
15375358 24 16415190157383297043
15669948 3 18131067198916751703
16945 1 17274827960609689883
1813 80 18118685405667450810
18186145 218 16805322201650289440
19026448 4 17095523993892939243
19026448 5 18408321103211846167
19422 9 18408601483067004227
20233049 118 17917712426576806872
20279233 1 16128655245236061583
20281475 54 18412256268281370391
20600515 1 17132108022756320928
20645476 183 18340209703482082166
20645477 70 18259984855642910330
21486144 27 17168146775198252850
21501502 16 18342172310452404815
22079108 93 17386297592296134289
2255824 54 18260266361148349306
22854114 111 18260268568376339684
23402539 116 17774427288233442037
23463225 33 18341609291658434230
23557571 272 16916230949020027688
23559900 14 17560807593752355486
23598291 2 18409451362600061270
2748010 2 17273121630295873857
2838139 119 17824529778929221733
3082319 5 18411703230885413708
474 4 17823703164415855092
5104073 3 18272087210315743587
573450 72 18272358755375602835
58051976 100 18334859398550048943
633830 44 17167860846530522661
7615 1 18339631330316684695
77492 1 18410853265431723434
81228 2 16414656855420458720

> <PUBCHEM_SHAPE_MULTIPOLES>
318.42
7.89
1.98
1.32
3.12
0.26
-0.25
0.79
0.08
-1.34
0.16
-0.49
0.02
-1.88

> <PUBCHEM_SHAPE_SELFOVERLAP>
638.218

> <PUBCHEM_SHAPE_VOLUME>
188.8

> <PUBCHEM_COORDINATE_TYPE>
2
5
10

$$$$
