575451
  -OEChem-11232109063D

 12 12  0     0  0  0  0  0  0999 V2000
    0.9558   -1.4212    0.0004 S   0  0  0  0  0  0  0  0  0  0  0  0
   -1.5904   -0.6374   -0.0003 O   0  0  0  0  0  0  0  0  0  0  0  0
    0.0409    0.9965   -0.0002 N   0  0  0  0  0  0  0  0  0  0  0  0
   -0.3156   -0.2687   -0.0006 C   0  0  0  0  0  0  0  0  0  0  0  0
    2.0893   -0.1342   -0.0002 C   0  0  0  0  0  0  0  0  0  0  0  0
    1.4200    1.0717    0.0003 C   0  0  0  0  0  0  0  0  0  0  0  0
   -2.5999    0.3932    0.0004 C   0  0  0  0  0  0  0  0  0  0  0  0
    3.1547   -0.3142   -0.0001 H   0  0  0  0  0  0  0  0  0  0  0  0
    1.8948    2.0435    0.0006 H   0  0  0  0  0  0  0  0  0  0  0  0
   -2.5130    1.0083    0.9017 H   0  0  0  0  0  0  0  0  0  0  0  0
   -3.5779   -0.0956    0.0006 H   0  0  0  0  0  0  0  0  0  0  0  0
   -2.5135    1.0089   -0.9005 H   0  0  0  0  0  0  0  0  0  0  0  0
  1  4  1  0  0  0  0
  1  5  1  0  0  0  0
  2  4  1  0  0  0  0
  2  7  1  0  0  0  0
  3  4  2  0  0  0  0
  3  6  1  0  0  0  0
  5  6  2  0  0  0  0
  5  8  1  0  0  0  0
  6  9  1  0  0  0  0
  7 10  1  0  0  0  0
  7 11  1  0  0  0  0
  7 12  1  0  0  0  0
M  END
> <PUBCHEM_COMPOUND_CID>
575451

> <PUBCHEM_CONFORMER_RMSD>
0.4

> <PUBCHEM_CONFORMER_DIVERSEORDER>
1
2
3

> <PUBCHEM_MMFF94_PARTIAL_CHARGES>
9
1 -0.08
2 -0.34
3 -0.57
4 0.44
5 -0.11
6 0.08
7 0.28
8 0.15
9 0.15

> <PUBCHEM_EFFECTIVE_ROTOR_COUNT>
1

> <PUBCHEM_PHARMACOPHORE_FEATURES>
1
5 1 3 4 5 6 rings

> <PUBCHEM_HEAVY_ATOM_COUNT>
7

> <PUBCHEM_ATOM_DEF_STEREO_COUNT>
0

> <PUBCHEM_ATOM_UDEF_STEREO_COUNT>
0

> <PUBCHEM_BOND_DEF_STEREO_COUNT>
0

> <PUBCHEM_BOND_UDEF_STEREO_COUNT>
0

> <PUBCHEM_ISOTOPIC_ATOM_COUNT>
0

> <PUBCHEM_COMPONENT_COUNT>
1

> <PUBCHEM_CACTVS_TAUTO_COUNT>
1

> <PUBCHEM_CONFORMER_ID>
0008C7DB00000001

> <PUBCHEM_MMFF94_ENERGY>
7.8074

> <PUBCHEM_FEATURE_SELFOVERLAP>
5.074

> <PUBCHEM_SHAPE_FINGERPRINT>
14390081 3 18272929457602438753
20096714 4 18339643459277876586
21040471 1 18194401319291908676
23552423 10 18117285761233997758
29004967 10 18334018276196358658
5460574 1 9223235147841766497

> <PUBCHEM_SHAPE_MULTIPOLES>
137.06
3.02
1.32
0.6
1.73
0.14
0
-0.22
0
-0.46
0
-0.04
0.02
0

> <PUBCHEM_SHAPE_SELFOVERLAP>
262.601

> <PUBCHEM_SHAPE_VOLUME>
86.2

> <PUBCHEM_COORDINATE_TYPE>
2
5
10

$$$$
