576026
  -OEChem-11232109023D

 30 30  0     0  0  0  0  0  0999 V2000
   -0.2673   -2.6776    0.7634 O   0  0  0  0  0  0  0  0  0  0  0  0
    3.4202    0.4365    0.2301 C   0  0  0  0  0  0  0  0  0  0  0  0
    2.5440   -0.2351   -0.8449 C   0  0  0  0  0  0  0  0  0  0  0  0
    3.2503    1.9562    0.1657 C   0  0  0  0  0  0  0  0  0  0  0  0
    4.8998    0.0751    0.0760 C   0  0  0  0  0  0  0  0  0  0  0  0
    1.0933    0.1657   -0.7529 C   0  0  0  0  0  0  0  0  0  0  0  0
    0.1129   -0.4823   -0.0977 C   0  0  0  0  0  0  0  0  0  0  0  0
   -1.2798   -0.0198   -0.0596 C   0  0  0  0  0  0  0  0  0  0  0  0
   -2.1691   -0.4461   -1.0366 C   0  0  0  0  0  0  0  0  0  0  0  0
   -1.6884    0.8378    0.9528 C   0  0  0  0  0  0  0  0  0  0  0  0
    0.5015   -1.7364    0.6039 C   0  0  0  0  0  0  0  0  0  0  0  0
   -3.4923   -0.0064   -1.0007 C   0  0  0  0  0  0  0  0  0  0  0  0
   -3.0117    1.2773    0.9887 C   0  0  0  0  0  0  0  0  0  0  0  0
   -3.9136    0.8552    0.0119 C   0  0  0  0  0  0  0  0  0  0  0  0
    3.0945    0.0993    1.2222 H   0  0  0  0  0  0  0  0  0  0  0  0
    2.6692   -1.3231   -0.8101 H   0  0  0  0  0  0  0  0  0  0  0  0
    2.9023    0.0543   -1.8422 H   0  0  0  0  0  0  0  0  0  0  0  0
    2.2362    2.2665    0.4363 H   0  0  0  0  0  0  0  0  0  0  0  0
    3.9289    2.4484    0.8717 H   0  0  0  0  0  0  0  0  0  0  0  0
    3.4744    2.3422   -0.8348 H   0  0  0  0  0  0  0  0  0  0  0  0
    5.2917    0.4113   -0.8899 H   0  0  0  0  0  0  0  0  0  0  0  0
    5.4996    0.5376    0.8668 H   0  0  0  0  0  0  0  0  0  0  0  0
    5.0393   -1.0091    0.1394 H   0  0  0  0  0  0  0  0  0  0  0  0
    0.8369    1.0842   -1.2804 H   0  0  0  0  0  0  0  0  0  0  0  0
   -1.8543   -1.1179   -1.8311 H   0  0  0  0  0  0  0  0  0  0  0  0
   -0.9959    1.1743    1.7202 H   0  0  0  0  0  0  0  0  0  0  0  0
    1.5367   -1.7958    0.9735 H   0  0  0  0  0  0  0  0  0  0  0  0
   -4.1947   -0.3352   -1.7611 H   0  0  0  0  0  0  0  0  0  0  0  0
   -3.3400    1.9482    1.7772 H   0  0  0  0  0  0  0  0  0  0  0  0
   -4.9440    1.1975    0.0399 H   0  0  0  0  0  0  0  0  0  0  0  0
  1 11  2  0  0  0  0
  2  3  1  0  0  0  0
  2  4  1  0  0  0  0
  2  5  1  0  0  0  0
  2 15  1  0  0  0  0
  3  6  1  0  0  0  0
  3 16  1  0  0  0  0
  3 17  1  0  0  0  0
  4 18  1  0  0  0  0
  4 19  1  0  0  0  0
  4 20  1  0  0  0  0
  5 21  1  0  0  0  0
  5 22  1  0  0  0  0
  5 23  1  0  0  0  0
  6  7  2  3  0  0  0
  6 24  1  0  0  0  0
  7  8  1  0  0  0  0
  7 11  1  0  0  0  0
  8  9  2  0  0  0  0
  8 10  1  0  0  0  0
  9 12  1  0  0  0  0
  9 25  1  0  0  0  0
 10 13  2  0  0  0  0
 10 26  1  0  0  0  0
 11 27  1  0  0  0  0
 12 14  2  0  0  0  0
 12 28  1  0  0  0  0
 13 14  1  0  0  0  0
 13 29  1  0  0  0  0
 14 30  1  0  0  0  0
M  END
> <PUBCHEM_COMPOUND_CID>
576026

> <PUBCHEM_CONFORMER_RMSD>
0.6

> <PUBCHEM_CONFORMER_DIVERSEORDER>
1
11
10
8
2
3
7
5
4
6
9

> <PUBCHEM_MMFF94_PARTIAL_CHARGES>
18
1 -0.57
10 -0.15
11 0.5
12 -0.15
13 -0.15
14 -0.15
24 0.15
25 0.15
26 0.15
27 0.06
28 0.15
29 0.15
3 0.14
30 0.15
6 -0.29
7 -0.01
8 0.03
9 -0.15

> <PUBCHEM_EFFECTIVE_ROTOR_COUNT>
4

> <PUBCHEM_PHARMACOPHORE_FEATURES>
3
1 1 acceptor
3 2 4 5 hydrophobe
6 8 9 10 12 13 14 rings

> <PUBCHEM_HEAVY_ATOM_COUNT>
14

> <PUBCHEM_ATOM_DEF_STEREO_COUNT>
0

> <PUBCHEM_ATOM_UDEF_STEREO_COUNT>
0

> <PUBCHEM_BOND_DEF_STEREO_COUNT>
0

> <PUBCHEM_BOND_UDEF_STEREO_COUNT>
1

> <PUBCHEM_ISOTOPIC_ATOM_COUNT>
0

> <PUBCHEM_COMPONENT_COUNT>
1

> <PUBCHEM_CACTVS_TAUTO_COUNT>
1

> <PUBCHEM_CONFORMER_ID>
0008CA1A00000001

> <PUBCHEM_MMFF94_ENERGY>
35.1392

> <PUBCHEM_FEATURE_SELFOVERLAP>
15.223

> <PUBCHEM_SHAPE_FINGERPRINT>
11543360 7 16988838414661503948
12119455 92 17676481739768484119
12162725 195 18131634508430763628
12251169 10 12757151281378625116
12346645 44 18339924822822814387
124424 183 15285357323334057797
13380535 76 18413109467987969782
15048467 5 14979965765585712835
15309172 13 17967534570884985630
15775835 57 18341614780600167297
17802600 8 18131626781737398336
17804303 29 12757153467522363941
18186145 218 18410857646503977028
19107657 47 17749384854201345100
200 152 15554451790715834388
20281407 28 8574438607994776228
20300324 65 17561360707840447437
204376 136 18186806893620921422
20510252 161 18121502615806921842
20871999 31 17060042754055193325
21339142 149 18201440323866098695
21499 59 18407758131736187055
21524375 3 18412545409695362358
22079108 93 18339657706327911209
22094290 60 15339121225797783497
22485316 2 8070033254985311060
23236772 104 18273215279402297641
23402539 116 18201993335402178436
23557571 272 16272212976711559360
23559900 14 16916791717509507198
265663 24 18131346397697678990
305870 269 18262800648901979314
351380 180 18201716254404027160
366044 4 18333167275877310530
42 15 12396303642770166693
4340502 62 18188503397851327171
474 4 18412829096617342032
6333272 397 18336830887069907696
633830 44 18341338816066497708
7364860 26 18125161532769283526
74978 22 18189340237500098348
81228 2 17681566057724399498
83771 10 8574715693593992596
9981440 41 17266916076995415048

> <PUBCHEM_SHAPE_MULTIPOLES>
282.24
7.9
1.76
1.05
4.45
0.62
0.04
-3.28
0.48
0.27
-0.65
-0.5
0.1
-0.39

> <PUBCHEM_SHAPE_SELFOVERLAP>
572.541

> <PUBCHEM_SHAPE_VOLUME>
164.7

> <PUBCHEM_COORDINATE_TYPE>
2
5
10

$$$$
