577126
  -OEChem-11232108543D

 34 34  0     0  0  0  0  0  0999 V2000
   -3.6607   -0.1664    1.0799 O   0  0  0  0  0  0  0  0  0  0  0  0
    1.2947   -1.1615    0.0640 C   0  0  0  0  0  0  0  0  0  0  0  0
    0.5282    0.1642    0.2848 C   0  0  0  0  0  0  0  0  0  0  0  0
    2.5428   -0.9594   -0.8497 C   0  0  0  0  0  0  0  0  0  0  0  0
   -0.9171    0.0460    0.7054 C   0  0  0  0  0  0  0  0  0  0  0  0
    1.7575   -1.6914    1.4401 C   0  0  0  0  0  0  0  0  0  0  0  0
    0.4195   -2.2428   -0.6057 C   0  0  0  0  0  0  0  0  0  0  0  0
    1.1594    1.3567    0.1496 C   0  0  0  0  0  0  0  0  0  0  0  0
    3.2395    0.3467   -0.6337 C   0  0  0  0  0  0  0  0  0  0  0  0
    2.5801    1.4097   -0.1598 C   0  0  0  0  0  0  0  0  0  0  0  0
   -1.8463    0.1110   -0.4947 C   0  0  0  0  0  0  0  0  0  0  0  0
    0.5215    2.7102    0.3076 C   0  0  0  0  0  0  0  0  0  0  0  0
   -3.3046   -0.0065   -0.0866 C   0  0  0  0  0  0  0  0  0  0  0  0
   -4.3144    0.0835   -1.2012 C   0  0  0  0  0  0  0  0  0  0  0  0
    2.2598   -1.0077   -1.9097 H   0  0  0  0  0  0  0  0  0  0  0  0
    3.2585   -1.7751   -0.6860 H   0  0  0  0  0  0  0  0  0  0  0  0
   -1.0833   -0.8718    1.2810 H   0  0  0  0  0  0  0  0  0  0  0  0
   -1.1707    0.8419    1.4173 H   0  0  0  0  0  0  0  0  0  0  0  0
    2.4069   -0.9735    1.9540 H   0  0  0  0  0  0  0  0  0  0  0  0
    0.9070   -1.8967    2.1000 H   0  0  0  0  0  0  0  0  0  0  0  0
    2.3190   -2.6270    1.3347 H   0  0  0  0  0  0  0  0  0  0  0  0
    0.0764   -1.9261   -1.5961 H   0  0  0  0  0  0  0  0  0  0  0  0
    1.0006   -3.1616   -0.7557 H   0  0  0  0  0  0  0  0  0  0  0  0
   -0.4500   -2.5255   -0.0048 H   0  0  0  0  0  0  0  0  0  0  0  0
    4.2906    0.4276   -0.8906 H   0  0  0  0  0  0  0  0  0  0  0  0
    3.1046    2.3502   -0.0214 H   0  0  0  0  0  0  0  0  0  0  0  0
   -1.6534   -0.6901   -1.2110 H   0  0  0  0  0  0  0  0  0  0  0  0
   -1.7291    1.0664   -1.0191 H   0  0  0  0  0  0  0  0  0  0  0  0
    0.9311    3.2237    1.1845 H   0  0  0  0  0  0  0  0  0  0  0  0
   -0.5637    2.6726    0.4259 H   0  0  0  0  0  0  0  0  0  0  0  0
    0.7174    3.3293   -0.5756 H   0  0  0  0  0  0  0  0  0  0  0  0
   -4.1433   -0.7246   -1.9166 H   0  0  0  0  0  0  0  0  0  0  0  0
   -5.3242   -0.0139   -0.7931 H   0  0  0  0  0  0  0  0  0  0  0  0
   -4.2263    1.0528   -1.6979 H   0  0  0  0  0  0  0  0  0  0  0  0
  1 13  2  0  0  0  0
  2  3  1  0  0  0  0
  2  4  1  0  0  0  0
  2  6  1  0  0  0  0
  2  7  1  0  0  0  0
  3  5  1  0  0  0  0
  3  8  2  0  0  0  0
  4  9  1  0  0  0  0
  4 15  1  0  0  0  0
  4 16  1  0  0  0  0
  5 11  1  0  0  0  0
  5 17  1  0  0  0  0
  5 18  1  0  0  0  0
  6 19  1  0  0  0  0
  6 20  1  0  0  0  0
  6 21  1  0  0  0  0
  7 22  1  0  0  0  0
  7 23  1  0  0  0  0
  7 24  1  0  0  0  0
  8 10  1  0  0  0  0
  8 12  1  0  0  0  0
  9 10  2  0  0  0  0
  9 25  1  0  0  0  0
 10 26  1  0  0  0  0
 11 13  1  0  0  0  0
 11 27  1  0  0  0  0
 11 28  1  0  0  0  0
 12 29  1  0  0  0  0
 12 30  1  0  0  0  0
 12 31  1  0  0  0  0
 13 14  1  0  0  0  0
 14 32  1  0  0  0  0
 14 33  1  0  0  0  0
 14 34  1  0  0  0  0
M  END
> <PUBCHEM_COMPOUND_CID>
577126

> <PUBCHEM_CONFORMER_RMSD>
0.6

> <PUBCHEM_CONFORMER_DIVERSEORDER>
1
23
18
5
17
11
16
9
14
22
13
21
20
15
4
6
10
19
7
2
12
3
8

> <PUBCHEM_MMFF94_PARTIAL_CHARGES>
14
1 -0.57
10 -0.15
11 0.06
12 0.14
13 0.45
14 0.06
2 0.14
25 0.15
26 0.15
3 -0.28
4 0.14
5 0.14
8 -0.14
9 -0.29

> <PUBCHEM_EFFECTIVE_ROTOR_COUNT>
3.4

> <PUBCHEM_PHARMACOPHORE_FEATURES>
3
1 1 acceptor
3 2 6 7 hydrophobe
6 2 3 4 8 9 10 rings

> <PUBCHEM_HEAVY_ATOM_COUNT>
14

> <PUBCHEM_ATOM_DEF_STEREO_COUNT>
0

> <PUBCHEM_ATOM_UDEF_STEREO_COUNT>
0

> <PUBCHEM_BOND_DEF_STEREO_COUNT>
0

> <PUBCHEM_BOND_UDEF_STEREO_COUNT>
0

> <PUBCHEM_ISOTOPIC_ATOM_COUNT>
0

> <PUBCHEM_COMPONENT_COUNT>
1

> <PUBCHEM_CACTVS_TAUTO_COUNT>
3

> <PUBCHEM_CONFORMER_ID>
0008CE6600000001

> <PUBCHEM_MMFF94_ENERGY>
30.2757

> <PUBCHEM_FEATURE_SELFOVERLAP>
15.223

> <PUBCHEM_SHAPE_FINGERPRINT>
10219947 1 18341897385089797942
10980938 120 18411698785625845853
11031198 65 18113903779230329909
11471102 20 18411135840073036325
116883 192 17765429851291782477
12423570 1 17409660187130090322
12654215 9 18334288756104478668
12932764 1 18186801387815797803
13380536 305 18342177803641723310
14144814 61 18272370863009346257
14251717 144 18341890805431996271
14993402 34 18273498978697353182
15757776 16 18411698764277570910
15775835 57 18335139842555137174
16945 1 17895204289711005840
18186145 218 18271533082061396309
19422 9 17489312979553291271
20279233 1 17676204680614155307
20606313 2 18411417323507793308
20645477 70 18409724033157903551
21501502 16 18117837703107228605
21524375 3 17905884030587605808
21730867 7 18335702758275310055
22289505 5 18262222332241830437
231179 274 18114174254827483181
23402539 116 18202563956420209644
23402655 69 18413105048524586189
23598291 2 17988929929533204501
25 1 18336835276637097972
257057 1 17539675907742417090
2748010 2 17908153418503208880
3060560 45 18343295985466078743
528886 8 18272092720800747610
77492 1 17489317377541708553
81228 2 17546158602329247785
81539 233 18113616819859963630
8272917 22 18271530784876391823

> <PUBCHEM_SHAPE_MULTIPOLES>
282.24
5.99
2.18
1.11
7.17
0.49
-0.12
0.1
1.42
-1.55
-0.18
0.18
-0.33
-0.12

> <PUBCHEM_SHAPE_SELFOVERLAP>
563.659

> <PUBCHEM_SHAPE_VOLUME>
166.7

> <PUBCHEM_COORDINATE_TYPE>
2
5
10

$$$$
