579336
  -OEChem-11232109013D

 38 38  0     1  0  0  0  0  0999 V2000
    3.6991    0.7872    0.8495 O   0  0  0  0  0  0  0  0  0  0  0  0
   -1.3514   -1.1383    0.1038 C   0  0  0  0  0  0  0  0  0  0  0  0
   -2.6494   -0.8970   -0.7114 C   0  0  0  0  0  0  0  0  0  0  0  0
   -0.5306    0.1588    0.2603 C   0  0  0  0  0  0  0  0  0  0  0  0
   -3.3828    0.3555   -0.2607 C   0  0  0  0  0  0  0  0  0  0  0  0
   -1.0541    1.3785   -0.0161 C   0  0  0  0  0  0  0  0  0  0  0  0
   -2.4939    1.5785   -0.4371 C   0  0  0  0  0  0  0  0  0  0  0  0
    0.8901   -0.0109    0.7523 C   0  0  0  0  0  0  0  0  0  0  0  0
   -0.5497   -2.2242   -0.6471 C   0  0  0  0  0  0  0  0  0  0  0  0
   -1.7248   -1.6829    1.5004 C   0  0  0  0  0  0  0  0  0  0  0  0
    1.8634   -0.1299   -0.4145 C   0  0  0  0  0  0  0  0  0  0  0  0
   -0.2782    2.6714    0.0337 C   0  0  0  0  0  0  0  0  0  0  0  0
    3.2990   -0.3412    0.0770 C   0  0  1  0  0  0  0  0  0  0  0  0
    4.2632   -0.5055   -1.0901 C   0  0  0  0  0  0  0  0  0  0  0  0
   -3.3202   -1.7616   -0.6301 H   0  0  0  0  0  0  0  0  0  0  0  0
   -2.4095   -0.7949   -1.7790 H   0  0  0  0  0  0  0  0  0  0  0  0
   -3.6914    0.2633    0.7870 H   0  0  0  0  0  0  0  0  0  0  0  0
   -4.3016    0.4828   -0.8449 H   0  0  0  0  0  0  0  0  0  0  0  0
   -2.9344    2.4075    0.1304 H   0  0  0  0  0  0  0  0  0  0  0  0
   -2.5019    1.8769   -1.4934 H   0  0  0  0  0  0  0  0  0  0  0  0
    0.9733   -0.8914    1.3988 H   0  0  0  0  0  0  0  0  0  0  0  0
    1.1577    0.8251    1.4079 H   0  0  0  0  0  0  0  0  0  0  0  0
   -0.2531   -1.8881   -1.6466 H   0  0  0  0  0  0  0  0  0  0  0  0
    0.3389   -2.5517   -0.0983 H   0  0  0  0  0  0  0  0  0  0  0  0
   -1.1666   -3.1207   -0.7885 H   0  0  0  0  0  0  0  0  0  0  0  0
   -2.3983   -2.5441    1.4205 H   0  0  0  0  0  0  0  0  0  0  0  0
   -0.8434   -2.0192    2.0571 H   0  0  0  0  0  0  0  0  0  0  0  0
   -2.2250   -0.9251    2.1133 H   0  0  0  0  0  0  0  0  0  0  0  0
    1.8246    0.7905   -1.0113 H   0  0  0  0  0  0  0  0  0  0  0  0
    1.6094   -0.9479   -1.0900 H   0  0  0  0  0  0  0  0  0  0  0  0
   -0.6757    3.3144    0.8261 H   0  0  0  0  0  0  0  0  0  0  0  0
   -0.3774    3.2019   -0.9198 H   0  0  0  0  0  0  0  0  0  0  0  0
    0.7915    2.5509    0.2131 H   0  0  0  0  0  0  0  0  0  0  0  0
    3.3604   -1.2315    0.7139 H   0  0  0  0  0  0  0  0  0  0  0  0
    4.0037   -1.3738   -1.7030 H   0  0  0  0  0  0  0  0  0  0  0  0
    5.2873   -0.6309   -0.7223 H   0  0  0  0  0  0  0  0  0  0  0  0
    4.2654    0.3869   -1.7257 H   0  0  0  0  0  0  0  0  0  0  0  0
    3.2885    0.7079    1.7268 H   0  0  0  0  0  0  0  0  0  0  0  0
  1 13  1  0  0  0  0
  1 38  1  0  0  0  0
  2  3  1  0  0  0  0
  2  4  1  0  0  0  0
  2  9  1  0  0  0  0
  2 10  1  0  0  0  0
  3  5  1  0  0  0  0
  3 15  1  0  0  0  0
  3 16  1  0  0  0  0
  4  6  2  0  0  0  0
  4  8  1  0  0  0  0
  5  7  1  0  0  0  0
  5 17  1  0  0  0  0
  5 18  1  0  0  0  0
  6  7  1  0  0  0  0
  6 12  1  0  0  0  0
  7 19  1  0  0  0  0
  7 20  1  0  0  0  0
  8 11  1  0  0  0  0
  8 21  1  0  0  0  0
  8 22  1  0  0  0  0
  9 23  1  0  0  0  0
  9 24  1  0  0  0  0
  9 25  1  0  0  0  0
 10 26  1  0  0  0  0
 10 27  1  0  0  0  0
 10 28  1  0  0  0  0
 11 13  1  0  0  0  0
 11 29  1  0  0  0  0
 11 30  1  0  0  0  0
 12 31  1  0  0  0  0
 12 32  1  0  0  0  0
 12 33  1  0  0  0  0
 13 14  1  0  0  0  0
 13 34  1  0  0  0  0
 14 35  1  0  0  0  0
 14 36  1  0  0  0  0
 14 37  1  0  0  0  0
M  END
> <PUBCHEM_COMPOUND_CID>
579336

> <PUBCHEM_CONFORMER_RMSD>
0.6

> <PUBCHEM_CONFORMER_DIVERSEORDER>
6
11
4
10
3
9
5
7
1
8
2

> <PUBCHEM_MMFF94_PARTIAL_CHARGES>
9
1 -0.68
12 0.14
13 0.28
2 0.14
38 0.4
4 -0.28
6 -0.28
7 0.14
8 0.14

> <PUBCHEM_EFFECTIVE_ROTOR_COUNT>
3.8

> <PUBCHEM_PHARMACOPHORE_FEATURES>
4
1 1 acceptor
1 1 donor
3 2 9 10 hydrophobe
6 2 3 4 5 6 7 rings

> <PUBCHEM_HEAVY_ATOM_COUNT>
14

> <PUBCHEM_ATOM_DEF_STEREO_COUNT>
0

> <PUBCHEM_ATOM_UDEF_STEREO_COUNT>
1

> <PUBCHEM_BOND_DEF_STEREO_COUNT>
0

> <PUBCHEM_BOND_UDEF_STEREO_COUNT>
0

> <PUBCHEM_ISOTOPIC_ATOM_COUNT>
0

> <PUBCHEM_COMPONENT_COUNT>
1

> <PUBCHEM_CACTVS_TAUTO_COUNT>
1

> <PUBCHEM_CONFORMER_ID>
0008D70800000006

> <PUBCHEM_MMFF94_ENERGY>
24.7454

> <PUBCHEM_FEATURE_SELFOVERLAP>
20.297

> <PUBCHEM_SHAPE_FINGERPRINT>
11132069 177 18412255125614354353
11680986 33 18047751782968955505
12186901 62 18261122832907741878
12932764 1 18343308076342491354
13024252 1 17967816046267891175
13296908 3 18339083791122730562
14614273 12 18117270359618509133
14993402 34 18186798063205103941
15669948 3 18408036325600606530
15775835 57 18042404634036148684
16945 1 17894909633411098417
18186145 218 18130503024918652272
200 152 16128653024970097638
20201158 50 17918276424512726622
20279233 1 18060136548932035366
20645476 183 17676209060979916555
20871998 184 18413111679642789671
20871999 31 18335416868188452365
21501502 16 18052819143860755171
21524375 3 17831860148908134496
22213442 358 18196648712326918316
22802520 49 18199478679242334510
23402539 116 18341880870988121860
23557571 272 18342738563679041800
23559900 14 18343015554952235050
2748010 2 18265887154340722321
353137 74 18191581956767050885
4175511 318 18040433274090768758
559249 180 18046623405182883882
6333449 129 18341608209247417888
77492 1 17530958064713128288
81228 2 18337959999818353968
9709674 26 18341052930596613654

> <PUBCHEM_SHAPE_MULTIPOLES>
282.24
6.03
2.24
1.04
6.69
0.58
0.15
-0.07
-1.14
-1.31
0.03
0.11
-0.35
0.56

> <PUBCHEM_SHAPE_SELFOVERLAP>
552.613

> <PUBCHEM_SHAPE_VOLUME>
170.2

> <PUBCHEM_COORDINATE_TYPE>
2
5
10

$$$$
