58165301
  -OEChem-11232109453D

 19 19  0     1  0  0  0  0  0999 V2000
    0.1036    1.9451    0.0772 S   0  0  0  0  0  0  0  0  0  0  0  0
    0.0998   -0.7656    0.3972 N   0  0  0  0  0  0  0  0  0  0  0  0
   -0.7728    0.4166    0.4937 C   0  0  2  0  0  0  0  0  0  0  0  0
   -1.9574    0.2216   -0.4429 C   0  0  0  0  0  0  0  0  0  0  0  0
    1.6135    1.0445   -0.2739 C   0  0  0  0  0  0  0  0  0  0  0  0
    1.2842   -0.4007    0.0133 C   0  0  0  0  0  0  0  0  0  0  0  0
   -2.7370   -1.0355   -0.1015 C   0  0  0  0  0  0  0  0  0  0  0  0
    2.3661   -1.4262   -0.1632 C   0  0  0  0  0  0  0  0  0  0  0  0
   -1.1252    0.5056    1.5273 H   0  0  0  0  0  0  0  0  0  0  0  0
   -1.6237    0.1476   -1.4860 H   0  0  0  0  0  0  0  0  0  0  0  0
   -2.6371    1.0804   -0.3780 H   0  0  0  0  0  0  0  0  0  0  0  0
    2.4275    1.3773    0.3747 H   0  0  0  0  0  0  0  0  0  0  0  0
    1.9021    1.1579   -1.3217 H   0  0  0  0  0  0  0  0  0  0  0  0
   -2.1419   -1.9403   -0.2594 H   0  0  0  0  0  0  0  0  0  0  0  0
   -3.6235   -1.1108   -0.7398 H   0  0  0  0  0  0  0  0  0  0  0  0
   -3.0744   -1.0207    0.9399 H   0  0  0  0  0  0  0  0  0  0  0  0
    3.2054   -1.1829    0.4937 H   0  0  0  0  0  0  0  0  0  0  0  0
    2.7076   -1.4156   -1.2016 H   0  0  0  0  0  0  0  0  0  0  0  0
    1.9952   -2.4247    0.0828 H   0  0  0  0  0  0  0  0  0  0  0  0
  1  3  1  0  0  0  0
  1  5  1  0  0  0  0
  2  3  1  0  0  0  0
  2  6  2  0  0  0  0
  3  4  1  0  0  0  0
  3  9  1  0  0  0  0
  4  7  1  0  0  0  0
  4 10  1  0  0  0  0
  4 11  1  0  0  0  0
  5  6  1  0  0  0  0
  5 12  1  0  0  0  0
  5 13  1  0  0  0  0
  6  8  1  0  0  0  0
  7 14  1  0  0  0  0
  7 15  1  0  0  0  0
  7 16  1  0  0  0  0
  8 17  1  0  0  0  0
  8 18  1  0  0  0  0
  8 19  1  0  0  0  0
M  END
> <PUBCHEM_COMPOUND_CID>
58165301

> <PUBCHEM_CONFORMER_RMSD>
0.4

> <PUBCHEM_CONFORMER_DIVERSEORDER>
2
3
5
4
6
1

> <PUBCHEM_MMFF94_PARTIAL_CHARGES>
6
1 -0.46
2 -0.7
3 0.48
5 0.29
6 0.33
8 0.06

> <PUBCHEM_EFFECTIVE_ROTOR_COUNT>
1.6

> <PUBCHEM_PHARMACOPHORE_FEATURES>
3
1 2 acceptor
1 7 hydrophobe
5 1 2 3 5 6 rings

> <PUBCHEM_HEAVY_ATOM_COUNT>
8

> <PUBCHEM_ATOM_DEF_STEREO_COUNT>
0

> <PUBCHEM_ATOM_UDEF_STEREO_COUNT>
1

> <PUBCHEM_BOND_DEF_STEREO_COUNT>
0

> <PUBCHEM_BOND_UDEF_STEREO_COUNT>
0

> <PUBCHEM_ISOTOPIC_ATOM_COUNT>
0

> <PUBCHEM_COMPONENT_COUNT>
1

> <PUBCHEM_CACTVS_TAUTO_COUNT>
1

> <PUBCHEM_CONFORMER_ID>
0377883500000002

> <PUBCHEM_MMFF94_ENERGY>
9.868

> <PUBCHEM_FEATURE_SELFOVERLAP>
15.223

> <PUBCHEM_SHAPE_FINGERPRINT>
12897270 3 18263641943112150005
14128692 85 18413110549997682622
18185500 45 18338798905551440817
21040471 1 17401767922071451560
23552333 60 18059020591288810425
23552423 10 18261396615497681502
23552449 1 18052252899962732560
241688 4 18337392617342450280
29004967 10 18412823620401885129

> <PUBCHEM_SHAPE_MULTIPOLES>
163.5
3.36
1.81
0.7
1.14
0.53
0
-1.74
0.43
-0.54
0.02
0.05
0.04
-0.03

> <PUBCHEM_SHAPE_SELFOVERLAP>
301.457

> <PUBCHEM_SHAPE_VOLUME>
105.1

> <PUBCHEM_COORDINATE_TYPE>
2
5
10

$$$$
