585911
  -OEChem-11232108403D

 43 43  0     1  0  0  0  0  0999 V2000
   -0.8601   -0.3110   -0.3565 O   0  0  0  0  0  0  0  0  0  0  0  0
   -2.7709   -1.5424    0.0336 O   0  0  0  0  0  0  0  0  0  0  0  0
    1.3628   -0.8009    0.4072 C   0  0  1  0  0  0  0  0  0  0  0  0
   -0.0955   -1.2538    0.3966 C   0  0  0  0  0  0  0  0  0  0  0  0
    1.9554   -0.8092   -1.0054 C   0  0  0  0  0  0  0  0  0  0  0  0
    1.4949    0.5979    1.0304 C   0  0  0  0  0  0  0  0  0  0  0  0
    3.4337   -0.4078   -0.9885 C   0  0  0  0  0  0  0  0  0  0  0  0
    3.7334    0.7664   -0.0906 C   0  0  0  0  0  0  0  0  0  0  0  0
    2.8424    1.2200    0.8077 C   0  0  0  0  0  0  0  0  0  0  0  0
   -0.6594   -1.3124    1.8161 C   0  0  0  0  0  0  0  0  0  0  0  0
   -0.2327   -2.6106   -0.2916 C   0  0  0  0  0  0  0  0  0  0  0  0
    5.0842    1.3974   -0.2563 C   0  0  0  0  0  0  0  0  0  0  0  0
   -2.1966   -0.5808   -0.4584 C   0  0  0  0  0  0  0  0  0  0  0  0
   -2.8528    0.4826   -1.3130 C   0  0  0  0  0  0  0  0  0  0  0  0
   -3.4397    1.6408   -0.4912 C   0  0  0  0  0  0  0  0  0  0  0  0
   -4.4784    1.1420    0.5165 C   0  0  0  0  0  0  0  0  0  0  0  0
   -2.3208    2.3817    0.2434 C   0  0  0  0  0  0  0  0  0  0  0  0
    1.9495   -1.5039    1.0172 H   0  0  0  0  0  0  0  0  0  0  0  0
    1.4049   -0.1130   -1.6518 H   0  0  0  0  0  0  0  0  0  0  0  0
    1.8911   -1.7962   -1.4747 H   0  0  0  0  0  0  0  0  0  0  0  0
    1.3308    0.5329    2.1125 H   0  0  0  0  0  0  0  0  0  0  0  0
    0.7451    1.2918    0.6337 H   0  0  0  0  0  0  0  0  0  0  0  0
    3.7413   -0.1785   -2.0158 H   0  0  0  0  0  0  0  0  0  0  0  0
    4.0378   -1.2608   -0.6547 H   0  0  0  0  0  0  0  0  0  0  0  0
    3.0863    2.0817    1.4236 H   0  0  0  0  0  0  0  0  0  0  0  0
   -1.5578   -1.9280    1.9164 H   0  0  0  0  0  0  0  0  0  0  0  0
    0.0700   -1.7563    2.5043 H   0  0  0  0  0  0  0  0  0  0  0  0
   -0.9191   -0.3165    2.1922 H   0  0  0  0  0  0  0  0  0  0  0  0
   -0.2445   -2.5226   -1.3842 H   0  0  0  0  0  0  0  0  0  0  0  0
   -1.1425   -3.1534   -0.0168 H   0  0  0  0  0  0  0  0  0  0  0  0
    0.5893   -3.2783   -0.0063 H   0  0  0  0  0  0  0  0  0  0  0  0
    5.2009    1.7839   -1.2739 H   0  0  0  0  0  0  0  0  0  0  0  0
    5.8719    0.6598   -0.0717 H   0  0  0  0  0  0  0  0  0  0  0  0
    5.2388    2.2308    0.4369 H   0  0  0  0  0  0  0  0  0  0  0  0
   -2.1289    0.8533   -2.0492 H   0  0  0  0  0  0  0  0  0  0  0  0
   -3.6423   -0.0085   -1.8950 H   0  0  0  0  0  0  0  0  0  0  0  0
   -3.9274    2.3378   -1.1834 H   0  0  0  0  0  0  0  0  0  0  0  0
   -5.2584    0.5596    0.0151 H   0  0  0  0  0  0  0  0  0  0  0  0
   -4.9635    1.9901    1.0121 H   0  0  0  0  0  0  0  0  0  0  0  0
   -4.0320    0.5183    1.2977 H   0  0  0  0  0  0  0  0  0  0  0  0
   -2.7164    3.2854    0.7203 H   0  0  0  0  0  0  0  0  0  0  0  0
   -1.5333    2.6931   -0.4508 H   0  0  0  0  0  0  0  0  0  0  0  0
   -1.8664    1.7725    1.0308 H   0  0  0  0  0  0  0  0  0  0  0  0
  1  4  1  0  0  0  0
  1 13  1  0  0  0  0
  2 13  2  0  0  0  0
  3  4  1  0  0  0  0
  3  5  1  0  0  0  0
  3  6  1  0  0  0  0
  3 18  1  0  0  0  0
  4 10  1  0  0  0  0
  4 11  1  0  0  0  0
  5  7  1  0  0  0  0
  5 19  1  0  0  0  0
  5 20  1  0  0  0  0
  6  9  1  0  0  0  0
  6 21  1  0  0  0  0
  6 22  1  0  0  0  0
  7  8  1  0  0  0  0
  7 23  1  0  0  0  0
  7 24  1  0  0  0  0
  8  9  2  0  0  0  0
  8 12  1  0  0  0  0
  9 25  1  0  0  0  0
 10 26  1  0  0  0  0
 10 27  1  0  0  0  0
 10 28  1  0  0  0  0
 11 29  1  0  0  0  0
 11 30  1  0  0  0  0
 11 31  1  0  0  0  0
 12 32  1  0  0  0  0
 12 33  1  0  0  0  0
 12 34  1  0  0  0  0
 13 14  1  0  0  0  0
 14 15  1  0  0  0  0
 14 35  1  0  0  0  0
 14 36  1  0  0  0  0
 15 16  1  0  0  0  0
 15 17  1  0  0  0  0
 15 37  1  0  0  0  0
 16 38  1  0  0  0  0
 16 39  1  0  0  0  0
 16 40  1  0  0  0  0
 17 41  1  0  0  0  0
 17 42  1  0  0  0  0
 17 43  1  0  0  0  0
M  END
> <PUBCHEM_COMPOUND_CID>
585911

> <PUBCHEM_CONFORMER_RMSD>
0.8

> <PUBCHEM_CONFORMER_DIVERSEORDER>
1
44
17
37
5
16
21
30
41
14
13
29
38
47
19
22
27
12
15
42
39
9
32
23
18
8
45
43
20
25
6
24
46
35
28
36
7
33
4
11
3
31
10
26
2
34
40

> <PUBCHEM_MMFF94_PARTIAL_CHARGES>
11
1 -0.43
12 0.14
13 0.66
14 0.06
2 -0.57
25 0.15
4 0.28
6 0.14
7 0.14
8 -0.28
9 -0.29

> <PUBCHEM_EFFECTIVE_ROTOR_COUNT>
5.8

> <PUBCHEM_PHARMACOPHORE_FEATURES>
4
1 2 acceptor
3 15 16 17 hydrophobe
3 4 10 11 hydrophobe
6 3 5 6 7 8 9 rings

> <PUBCHEM_HEAVY_ATOM_COUNT>
17

> <PUBCHEM_ATOM_DEF_STEREO_COUNT>
0

> <PUBCHEM_ATOM_UDEF_STEREO_COUNT>
1

> <PUBCHEM_BOND_DEF_STEREO_COUNT>
0

> <PUBCHEM_BOND_UDEF_STEREO_COUNT>
0

> <PUBCHEM_ISOTOPIC_ATOM_COUNT>
0

> <PUBCHEM_COMPONENT_COUNT>
1

> <PUBCHEM_CACTVS_TAUTO_COUNT>
1

> <PUBCHEM_CONFORMER_ID>
0008F0B700000001

> <PUBCHEM_MMFF94_ENERGY>
32.9134

> <PUBCHEM_FEATURE_SELFOVERLAP>
20.297

> <PUBCHEM_SHAPE_FINGERPRINT>
10498660 4 18337942416449071477
10608611 8 18270959167256934800
10646746 165 18410854369702464276
10681291 71 18412548674071259745
10922049 32 18335425634053224859
11046707 91 10375876285636924708
11132069 177 17967253087560914469
11715629 250 18336261237162677125
11769659 78 10303812103018911842
12173636 292 18411697664982273351
122479 349 18187649136839379964
12251169 10 13262401063655601912
12346645 44 18335136458273836511
12491281 212 18408037403236302451
12892183 10 14634860916724647556
13464514 151 18341615854705864726
13693222 15 11458434517817396189
13764800 53 18187653496283965681
14123255 52 18264767671268202285
14251745 187 18272365365272372640
14251764 38 18047470321009911972
14251764 75 17910964539013570633
15309172 13 15140671501560841290
15534591 1 18333446551709387891
15775835 57 18186795855396721653
16945 1 18196354021667435122
1741750 31 18407757049478365930
1798214 55 18335700507559817085
18186145 218 18411699850909604166
19862831 5 15554445197503243401
200 152 15626229026458018488
20361792 2 12967119532293425923
20510252 161 18336266850748281851
20645477 56 18411703217989851740
20645477 70 17346048796529768806
20671657 1 18119525432102444963
20671657 53 14261344743726659274
20871999 31 17560791178266148111
21501925 9 9007048067650076486
21524375 3 18260824847971341171
21713013 43 15984243253682735901
22926399 65 18410291423970287080
23114952 82 17845662425798153798
23402539 116 18341323474854688532
23402655 69 17775568632758336988
23419403 2 17179736538341521795
23500284 214 18260551134121671808
23557571 272 18270403922274538551
23559900 14 18272371941605748598
24859131 72 11169916082520251633
25 1 18271806787379023334
2637199 183 18128543665238601325
276578 36 17603864468842946954
4028521 119 18411694353494312373
474 4 18260831488064809445
568465 68 12973880412308034092
633830 44 18342455885509848533
6442390 28 18335996306759083043
76465 3 10735887140579477436
81228 2 17752206342751293771
9882013 296 14057012610880209585

> <PUBCHEM_SHAPE_MULTIPOLES>
338.11
8.17
2.31
1.22
2.51
0.25
-0.2
-5.66
1.26
-1
-0.15
-0.05
0.19
0.33

> <PUBCHEM_SHAPE_SELFOVERLAP>
672.352

> <PUBCHEM_SHAPE_VOLUME>
199.9

> <PUBCHEM_COORDINATE_TYPE>
2
5
10

$$$$
