5862476
  -OEChem-11232109243D

 45 45  0     0  0  0  0  0  0999 V2000
    0.8330    1.3247    0.4525 O   0  0  0  0  0  0  0  0  0  0  0  0
   -0.6217    3.1130    0.6078 O   0  0  0  0  0  0  0  0  0  0  0  0
    5.1802    0.1712   -0.4235 C   0  0  0  0  0  0  0  0  0  0  0  0
    4.8994   -1.3258   -0.6087 C   0  0  0  0  0  0  0  0  0  0  0  0
    3.9371    1.0350   -0.4665 C   0  0  0  0  0  0  0  0  0  0  0  0
    3.9994   -1.8816    0.4600 C   0  0  0  0  0  0  0  0  0  0  0  0
    3.1964    1.3723    0.6073 C   0  0  0  0  0  0  0  0  0  0  0  0
    3.5254    1.4969   -1.8411 C   0  0  0  0  0  0  0  0  0  0  0  0
    2.7524   -2.3708    0.3249 C   0  0  0  0  0  0  0  0  0  0  0  0
    1.9446    2.1899    0.6415 C   0  0  0  0  0  0  0  0  0  0  0  0
    1.9977   -2.4821   -0.9692 C   0  0  0  0  0  0  0  0  0  0  0  0
    2.0008   -2.8792    1.5265 C   0  0  0  0  0  0  0  0  0  0  0  0
   -0.3939    1.9229    0.4580 C   0  0  0  0  0  0  0  0  0  0  0  0
   -3.8185    0.2610   -0.0060 C   0  0  0  0  0  0  0  0  0  0  0  0
   -1.4159    0.8721    0.2507 C   0  0  0  0  0  0  0  0  0  0  0  0
   -2.7122    1.2111    0.2047 C   0  0  0  0  0  0  0  0  0  0  0  0
   -3.6120   -1.0866    0.2406 C   0  0  0  0  0  0  0  0  0  0  0  0
   -5.0438    0.7337   -0.4476 C   0  0  0  0  0  0  0  0  0  0  0  0
   -4.6590   -1.9861    0.0402 C   0  0  0  0  0  0  0  0  0  0  0  0
   -6.0910   -0.1658   -0.6479 C   0  0  0  0  0  0  0  0  0  0  0  0
   -5.8986   -1.5257   -0.4040 C   0  0  0  0  0  0  0  0  0  0  0  0
    5.6891    0.3240    0.5380 H   0  0  0  0  0  0  0  0  0  0  0  0
    5.8906    0.5096   -1.1880 H   0  0  0  0  0  0  0  0  0  0  0  0
    5.8522   -1.8677   -0.5593 H   0  0  0  0  0  0  0  0  0  0  0  0
    4.5109   -1.5044   -1.6150 H   0  0  0  0  0  0  0  0  0  0  0  0
    4.4361   -1.8670    1.4583 H   0  0  0  0  0  0  0  0  0  0  0  0
    3.5191    0.9972    1.5776 H   0  0  0  0  0  0  0  0  0  0  0  0
    3.5333    0.6511   -2.5375 H   0  0  0  0  0  0  0  0  0  0  0  0
    4.2331    2.2468   -2.2097 H   0  0  0  0  0  0  0  0  0  0  0  0
    2.5214    1.9240   -1.8921 H   0  0  0  0  0  0  0  0  0  0  0  0
    1.9511    2.9822   -0.1146 H   0  0  0  0  0  0  0  0  0  0  0  0
    1.8689    2.6731    1.6233 H   0  0  0  0  0  0  0  0  0  0  0  0
    1.0411   -1.9540   -0.8899 H   0  0  0  0  0  0  0  0  0  0  0  0
    2.5245   -2.0574   -1.8254 H   0  0  0  0  0  0  0  0  0  0  0  0
    1.7916   -3.5336   -1.1950 H   0  0  0  0  0  0  0  0  0  0  0  0
    1.7427   -3.9349    1.3937 H   0  0  0  0  0  0  0  0  0  0  0  0
    2.5820   -2.7931    2.4506 H   0  0  0  0  0  0  0  0  0  0  0  0
    1.0758   -2.3089    1.6626 H   0  0  0  0  0  0  0  0  0  0  0  0
   -3.0083    2.2519    0.3157 H   0  0  0  0  0  0  0  0  0  0  0  0
   -1.0571   -0.1422    0.1202 H   0  0  0  0  0  0  0  0  0  0  0  0
   -2.6720   -1.4866    0.6072 H   0  0  0  0  0  0  0  0  0  0  0  0
   -5.2090    1.7898   -0.6434 H   0  0  0  0  0  0  0  0  0  0  0  0
   -4.5114   -3.0444    0.2346 H   0  0  0  0  0  0  0  0  0  0  0  0
   -7.0562    0.1924   -0.9939 H   0  0  0  0  0  0  0  0  0  0  0  0
   -6.7142   -2.2259   -0.5589 H   0  0  0  0  0  0  0  0  0  0  0  0
  1 10  1  0  0  0  0
  1 13  1  0  0  0  0
  2 13  2  0  0  0  0
  3  4  1  0  0  0  0
  3  5  1  0  0  0  0
  3 22  1  0  0  0  0
  3 23  1  0  0  0  0
  4  6  1  0  0  0  0
  4 24  1  0  0  0  0
  4 25  1  0  0  0  0
  5  7  2  0  0  0  0
  5  8  1  0  0  0  0
  6  9  2  0  0  0  0
  6 26  1  0  0  0  0
  7 10  1  0  0  0  0
  7 27  1  0  0  0  0
  8 28  1  0  0  0  0
  8 29  1  0  0  0  0
  8 30  1  0  0  0  0
  9 11  1  0  0  0  0
  9 12  1  0  0  0  0
 10 31  1  0  0  0  0
 10 32  1  0  0  0  0
 11 33  1  0  0  0  0
 11 34  1  0  0  0  0
 11 35  1  0  0  0  0
 12 36  1  0  0  0  0
 12 37  1  0  0  0  0
 12 38  1  0  0  0  0
 13 15  1  0  0  0  0
 14 16  1  0  0  0  0
 14 17  2  0  0  0  0
 14 18  1  0  0  0  0
 15 16  2  0  0  0  0
 15 40  1  0  0  0  0
 16 39  1  0  0  0  0
 17 19  1  0  0  0  0
 17 41  1  0  0  0  0
 18 20  2  0  0  0  0
 18 42  1  0  0  0  0
 19 21  2  0  0  0  0
 19 43  1  0  0  0  0
 20 21  1  0  0  0  0
 20 44  1  0  0  0  0
 21 45  1  0  0  0  0
M  END
> <PUBCHEM_COMPOUND_CID>
5862476

> <PUBCHEM_CONFORMER_RMSD>
0.8

> <PUBCHEM_CONFORMER_DIVERSEORDER>
12
326
141
304
125
47
132
247
308
95
262
53
26
104
114
292
68
29
211
268
322
61
261
316
119
313
258
117
226
198
302
161
102
100
140
310
325
131
89
134
18
333
43
246
106
67
329
232
121
235
334
259
48
123
239
336
214
171
189
224
142
289
213
8
169
327
96
38
175
191
234
120
291
163
277
280
66
14
105
56
299
312
257
301
98
101
255
156
298
9
212
300
210
122
267
284
183
4
201
285
5
184
27
133
83
330
136
240
203
233
49
167
260
177
286
2
186
315
230
144
338
297
271
185
112
206
250
108
152
88
62
24
190
252
179
243
180
168
79
339
172
77
332
324
266
341
87
65
164
126
20
303
23
202
13
278
254
176
293
63
46
103
111
181
21
166
272
64
10
221
197
225
16
245
7
139
199
253
309
146
145
282
287
55
265
207
143
69
150
147
320
323
6
42
200
264
52
72
288
194
343
60
45
305
155
78
158
209
93
311
50
296
238
319
129
44
251
275
220
314
178
11
205
31
174
218
149
154
237
97
94
279
34
84
241
187
51
25
86
269
219
127
33
92
81
192
228
196
157
113
90
115
32
35
188
328
182
19
317
227
222
28
85
244
216
270
248
165
135
170
153
162
173
138
58
229
130
306
263
159
160
22
30
118
195
249
80
3
99
70
109
82
41
281
217
273
40
137
307
151
294
148
242
76
337
74
193
276
39
54
335
75
295
91
283
274
110
331
342
318
124
128
231
208
223
17
290
73
57
321
340
15
59
215
37
236
256
36
71
116
107
1
204

> <PUBCHEM_MMFF94_PARTIAL_CHARGES>
30
1 -0.43
10 0.42
11 0.14
12 0.14
13 0.71
14 0.03
15 -0.14
16 -0.18
17 -0.15
18 -0.15
19 -0.15
2 -0.57
20 -0.15
21 -0.15
26 0.15
27 0.15
3 0.14
39 0.15
4 0.14
40 0.15
41 0.15
42 0.15
43 0.15
44 0.15
45 0.15
5 -0.28
6 -0.29
7 -0.29
8 0.14
9 -0.28

> <PUBCHEM_EFFECTIVE_ROTOR_COUNT>
8

> <PUBCHEM_PHARMACOPHORE_FEATURES>
5
1 2 acceptor
1 8 hydrophobe
3 9 11 12 hydrophobe
4 3 4 5 6 hydrophobe
6 14 17 18 19 20 21 rings

> <PUBCHEM_HEAVY_ATOM_COUNT>
21

> <PUBCHEM_ATOM_DEF_STEREO_COUNT>
0

> <PUBCHEM_ATOM_UDEF_STEREO_COUNT>
0

> <PUBCHEM_BOND_DEF_STEREO_COUNT>
2

> <PUBCHEM_BOND_UDEF_STEREO_COUNT>
0

> <PUBCHEM_ISOTOPIC_ATOM_COUNT>
0

> <PUBCHEM_COMPONENT_COUNT>
1

> <PUBCHEM_CACTVS_TAUTO_COUNT>
1

> <PUBCHEM_CONFORMER_ID>
0059744C0000000C

> <PUBCHEM_MMFF94_ENERGY>
39.5322

> <PUBCHEM_FEATURE_SELFOVERLAP>
25.378

> <PUBCHEM_SHAPE_FINGERPRINT>
11186622 123 18409444748271330171
11796584 16 18199753535727507940
12596602 18 17131836490322932353
13402501 40 18410293635546284627
14790565 3 17259907317613246977
14931854 50 18335711511840977694
15003188 105 18335137545175518666
15110567 62 18409449189099176875
15183329 4 18341609283917942549
15324115 91 16226322621195568074
15352361 1 18412824668563796363
15537594 2 18272374230132000239
17857418 61 18412825768043873033
17909252 39 18271806796206458834
20028762 73 18340485544348611990
20645477 70 18336541702711569648
21860390 5 15647629985279414110
235170 7 17385714803265994895
23559900 14 18340477980757735985
23596394 208 18261663809898154173
239999 70 17988365970225987084
2871803 45 18409732846372564560
3004659 81 18260827085791473896
338550 245 18336545039922069414
4283 87 18341602758960592047
439807 62 18333453153617681243
4573279 79 14927279247405367866
46194498 28 17531246213927106037
463206 1 18339360880700695507
465052 167 18060705008838062924
484989 97 18262252122024478754
5283173 99 18115581535791877645
5283384 97 18343010112743667135
556388 4 18337388240934111018
59682541 52 18337094714827761679
960060 61 18187649127986110628

> <PUBCHEM_SHAPE_MULTIPOLES>
420.43
14.38
3.42
1.1
13.79
0.72
-0.16
5.03
-3.72
-2.27
0.75
-0.96
0.07
-0.73

> <PUBCHEM_SHAPE_SELFOVERLAP>
844.587

> <PUBCHEM_SHAPE_VOLUME>
246.9

> <PUBCHEM_COORDINATE_TYPE>
2
5
10

$$$$
