586728
  -OEChem-11232108483D

 20 20  0     0  0  0  0  0  0999 V2000
   -1.9296   -0.8341    0.0000 O   0  0  0  0  0  0  0  0  0  0  0  0
    0.3792   -1.0141    0.0002 N   0  0  0  0  0  0  0  0  0  0  0  0
    0.5839    1.7831    0.0000 N   0  0  0  0  0  0  0  0  0  0  0  0
   -0.6086    1.1550   -0.0001 C   0  0  0  0  0  0  0  0  0  0  0  0
   -0.7091   -0.2189   -0.0001 C   0  0  0  0  0  0  0  0  0  0  0  0
    1.5716   -0.3860    0.0000 C   0  0  0  0  0  0  0  0  0  0  0  0
    1.6722    0.9879    0.0001 C   0  0  0  0  0  0  0  0  0  0  0  0
   -1.8233    2.0185    0.0000 C   0  0  0  0  0  0  0  0  0  0  0  0
    2.7960   -1.2331   -0.0001 C   0  0  0  0  0  0  0  0  0  0  0  0
   -1.9325   -2.2583    0.0000 C   0  0  0  0  0  0  0  0  0  0  0  0
   -2.4282    1.8280    0.8921 H   0  0  0  0  0  0  0  0  0  0  0  0
   -1.5510    3.0793   -0.0002 H   0  0  0  0  0  0  0  0  0  0  0  0
   -2.4284    1.8278   -0.8920 H   0  0  0  0  0  0  0  0  0  0  0  0
    2.6271    1.5003    0.0001 H   0  0  0  0  0  0  0  0  0  0  0  0
    3.3985   -1.0318   -0.8915 H   0  0  0  0  0  0  0  0  0  0  0  0
    3.3985   -1.0322    0.8913 H   0  0  0  0  0  0  0  0  0  0  0  0
    2.5375   -2.2971   -0.0003 H   0  0  0  0  0  0  0  0  0  0  0  0
   -1.4515   -2.6513   -0.9019 H   0  0  0  0  0  0  0  0  0  0  0  0
   -2.9743   -2.5922   -0.0001 H   0  0  0  0  0  0  0  0  0  0  0  0
   -1.4516   -2.6514    0.9019 H   0  0  0  0  0  0  0  0  0  0  0  0
  1  5  1  0  0  0  0
  1 10  1  0  0  0  0
  2  5  2  0  0  0  0
  2  6  1  0  0  0  0
  3  4  2  0  0  0  0
  3  7  1  0  0  0  0
  4  5  1  0  0  0  0
  4  8  1  0  0  0  0
  6  7  2  0  0  0  0
  6  9  1  0  0  0  0
  7 14  1  0  0  0  0
  8 11  1  0  0  0  0
  8 12  1  0  0  0  0
  8 13  1  0  0  0  0
  9 15  1  0  0  0  0
  9 16  1  0  0  0  0
  9 17  1  0  0  0  0
 10 18  1  0  0  0  0
 10 19  1  0  0  0  0
 10 20  1  0  0  0  0
M  END
> <PUBCHEM_COMPOUND_CID>
586728

> <PUBCHEM_CONFORMER_RMSD>
0.4

> <PUBCHEM_CONFORMER_DIVERSEORDER>
1
2
3

> <PUBCHEM_MMFF94_PARTIAL_CHARGES>
11
1 -0.36
10 0.28
14 0.15
2 -0.62
3 -0.62
4 0.17
5 0.39
6 0.17
7 0.16
8 0.14
9 0.14

> <PUBCHEM_EFFECTIVE_ROTOR_COUNT>
1

> <PUBCHEM_PHARMACOPHORE_FEATURES>
2
1 3 acceptor
6 2 3 4 5 6 7 rings

> <PUBCHEM_HEAVY_ATOM_COUNT>
10

> <PUBCHEM_ATOM_DEF_STEREO_COUNT>
0

> <PUBCHEM_ATOM_UDEF_STEREO_COUNT>
0

> <PUBCHEM_BOND_DEF_STEREO_COUNT>
0

> <PUBCHEM_BOND_UDEF_STEREO_COUNT>
0

> <PUBCHEM_ISOTOPIC_ATOM_COUNT>
0

> <PUBCHEM_COMPONENT_COUNT>
1

> <PUBCHEM_CACTVS_TAUTO_COUNT>
1

> <PUBCHEM_CONFORMER_ID>
0008F3E800000001

> <PUBCHEM_MMFF94_ENERGY>
28.5513

> <PUBCHEM_FEATURE_SELFOVERLAP>
10.148

> <PUBCHEM_SHAPE_FINGERPRINT>
161256 15 18197504128141651348
16945 1 18338797805992496132
18185500 45 17909268322998270695
193761 8 18410855498920433252
20871998 184 18273213058487844718
21040471 1 18122624946653820452
23552423 10 18260552250997720134
241688 4 18408886260578069273
2748010 2 18411696595335073140
29004967 10 18048597324136786891

> <PUBCHEM_SHAPE_MULTIPOLES>
189.96
3.2
2.41
0.59
1.29
0.34
0
0.88
0
-1.44
0
0.01
0
0

> <PUBCHEM_SHAPE_SELFOVERLAP>
386.59

> <PUBCHEM_SHAPE_VOLUME>
112.1

> <PUBCHEM_COORDINATE_TYPE>
2
5
10

$$$$
