5875676
  -OEChem-11232109273D

 48 48  0     0  0  0  0  0  0999 V2000
   -2.7464   -1.2154   -0.9098 O   0  0  0  0  0  0  0  0  0  0  0  0
   -2.5673    0.3640    0.8392 O   0  0  0  0  0  0  0  0  0  0  0  0
    0.0553    1.6643   -0.1998 C   0  0  0  0  0  0  0  0  0  0  0  0
   -0.1447    0.3209   -0.9087 C   0  0  0  0  0  0  0  0  0  0  0  0
    0.5391    2.7385   -1.1772 C   0  0  0  0  0  0  0  0  0  0  0  0
   -0.5972   -0.7819    0.0336 C   0  0  0  0  0  0  0  0  0  0  0  0
   -2.0878   -0.8844    0.3206 C   0  0  0  0  0  0  0  0  0  0  0  0
    0.7712    4.0719   -0.4670 C   0  0  0  0  0  0  0  0  0  0  0  0
    0.3353   -1.5770    0.5980 C   0  0  0  0  0  0  0  0  0  0  0  0
    1.2837    5.1330   -1.4275 C   0  0  0  0  0  0  0  0  0  0  0  0
    1.7827   -1.4839    0.3897 C   0  0  0  0  0  0  0  0  0  0  0  0
   -4.0368   -1.7745   -0.7023 C   0  0  0  0  0  0  0  0  0  0  0  0
   -2.2845    0.5339    2.2226 C   0  0  0  0  0  0  0  0  0  0  0  0
    2.3867   -2.2034   -0.6416 C   0  0  0  0  0  0  0  0  0  0  0  0
    2.5569   -0.6759    1.2227 C   0  0  0  0  0  0  0  0  0  0  0  0
   -4.6580   -2.0930   -2.0456 C   0  0  0  0  0  0  0  0  0  0  0  0
   -2.8261    1.8730    2.6756 C   0  0  0  0  0  0  0  0  0  0  0  0
    3.7646   -2.1151   -0.8398 C   0  0  0  0  0  0  0  0  0  0  0  0
    3.9348   -0.5876    1.0243 C   0  0  0  0  0  0  0  0  0  0  0  0
    4.5385   -1.3072   -0.0069 C   0  0  0  0  0  0  0  0  0  0  0  0
   -0.8819    2.0129    0.2405 H   0  0  0  0  0  0  0  0  0  0  0  0
    0.7761    1.5631    0.6184 H   0  0  0  0  0  0  0  0  0  0  0  0
   -0.8949    0.4397   -1.7014 H   0  0  0  0  0  0  0  0  0  0  0  0
    0.7719    0.0482   -1.4438 H   0  0  0  0  0  0  0  0  0  0  0  0
    1.4728    2.4092   -1.6495 H   0  0  0  0  0  0  0  0  0  0  0  0
   -0.1998    2.8697   -1.9771 H   0  0  0  0  0  0  0  0  0  0  0  0
   -2.2745   -1.6871    1.0471 H   0  0  0  0  0  0  0  0  0  0  0  0
   -0.1635    4.4186   -0.0112 H   0  0  0  0  0  0  0  0  0  0  0  0
    1.4981    3.9411    0.3432 H   0  0  0  0  0  0  0  0  0  0  0  0
    0.0266   -2.3587    1.2880 H   0  0  0  0  0  0  0  0  0  0  0  0
    0.5660    5.3107   -2.2347 H   0  0  0  0  0  0  0  0  0  0  0  0
    1.4414    6.0783   -0.8989 H   0  0  0  0  0  0  0  0  0  0  0  0
    2.2361    4.8307   -1.8745 H   0  0  0  0  0  0  0  0  0  0  0  0
   -3.9522   -2.6937   -0.1120 H   0  0  0  0  0  0  0  0  0  0  0  0
   -4.6675   -1.0607   -0.1612 H   0  0  0  0  0  0  0  0  0  0  0  0
   -2.7652   -0.2665    2.7961 H   0  0  0  0  0  0  0  0  0  0  0  0
   -1.2052    0.4979    2.4029 H   0  0  0  0  0  0  0  0  0  0  0  0
    1.7966   -2.8373   -1.2991 H   0  0  0  0  0  0  0  0  0  0  0  0
    2.1019   -0.1121    2.0335 H   0  0  0  0  0  0  0  0  0  0  0  0
   -4.7397   -1.1880   -2.6566 H   0  0  0  0  0  0  0  0  0  0  0  0
   -5.6542   -2.5270   -1.9227 H   0  0  0  0  0  0  0  0  0  0  0  0
   -4.0317   -2.7975   -2.6028 H   0  0  0  0  0  0  0  0  0  0  0  0
   -2.6347    2.0313    3.7406 H   0  0  0  0  0  0  0  0  0  0  0  0
   -3.9051    1.9320    2.4983 H   0  0  0  0  0  0  0  0  0  0  0  0
   -2.3663    2.6899    2.1103 H   0  0  0  0  0  0  0  0  0  0  0  0
    4.2349   -2.6752   -1.6427 H   0  0  0  0  0  0  0  0  0  0  0  0
    4.5378    0.0409    1.6732 H   0  0  0  0  0  0  0  0  0  0  0  0
    5.6113   -1.2385   -0.1612 H   0  0  0  0  0  0  0  0  0  0  0  0
  1  7  1  0  0  0  0
  1 12  1  0  0  0  0
  2  7  1  0  0  0  0
  2 13  1  0  0  0  0
  3  4  1  0  0  0  0
  3  5  1  0  0  0  0
  3 21  1  0  0  0  0
  3 22  1  0  0  0  0
  4  6  1  0  0  0  0
  4 23  1  0  0  0  0
  4 24  1  0  0  0  0
  5  8  1  0  0  0  0
  5 25  1  0  0  0  0
  5 26  1  0  0  0  0
  6  7  1  0  0  0  0
  6  9  2  0  0  0  0
  7 27  1  0  0  0  0
  8 10  1  0  0  0  0
  8 28  1  0  0  0  0
  8 29  1  0  0  0  0
  9 11  1  0  0  0  0
  9 30  1  0  0  0  0
 10 31  1  0  0  0  0
 10 32  1  0  0  0  0
 10 33  1  0  0  0  0
 11 14  2  0  0  0  0
 11 15  1  0  0  0  0
 12 16  1  0  0  0  0
 12 34  1  0  0  0  0
 12 35  1  0  0  0  0
 13 17  1  0  0  0  0
 13 36  1  0  0  0  0
 13 37  1  0  0  0  0
 14 18  1  0  0  0  0
 14 38  1  0  0  0  0
 15 19  2  0  0  0  0
 15 39  1  0  0  0  0
 16 40  1  0  0  0  0
 16 41  1  0  0  0  0
 16 42  1  0  0  0  0
 17 43  1  0  0  0  0
 17 44  1  0  0  0  0
 17 45  1  0  0  0  0
 18 20  2  0  0  0  0
 18 46  1  0  0  0  0
 19 20  1  0  0  0  0
 19 47  1  0  0  0  0
 20 48  1  0  0  0  0
M  END
> <PUBCHEM_COMPOUND_CID>
5875676

> <PUBCHEM_CONFORMER_RMSD>
1

> <PUBCHEM_CONFORMER_DIVERSEORDER>
1
25
2
31
26
24
17
22
34
15
3
23
12
16
4
18
11
5
7
9
10
19
21
6
13
28
14
29
20
35
30
8
33
27
32

> <PUBCHEM_MMFF94_PARTIAL_CHARGES>
20
1 -0.56
11 0.03
12 0.28
13 0.28
14 -0.15
15 -0.15
18 -0.15
19 -0.15
2 -0.56
20 -0.15
30 0.15
38 0.15
39 0.15
4 0.14
46 0.15
47 0.15
48 0.15
6 -0.28
7 0.7
9 -0.18

> <PUBCHEM_EFFECTIVE_ROTOR_COUNT>
10

> <PUBCHEM_PHARMACOPHORE_FEATURES>
5
1 1 acceptor
1 10 hydrophobe
1 2 acceptor
5 3 4 5 6 8 hydrophobe
6 11 14 15 18 19 20 rings

> <PUBCHEM_HEAVY_ATOM_COUNT>
20

> <PUBCHEM_ATOM_DEF_STEREO_COUNT>
0

> <PUBCHEM_ATOM_UDEF_STEREO_COUNT>
0

> <PUBCHEM_BOND_DEF_STEREO_COUNT>
1

> <PUBCHEM_BOND_UDEF_STEREO_COUNT>
0

> <PUBCHEM_ISOTOPIC_ATOM_COUNT>
0

> <PUBCHEM_COMPONENT_COUNT>
1

> <PUBCHEM_CACTVS_TAUTO_COUNT>
1

> <PUBCHEM_CONFORMER_ID>
0059A7DC00000001

> <PUBCHEM_MMFF94_ENERGY>
33.0988

> <PUBCHEM_FEATURE_SELFOVERLAP>
25.41

> <PUBCHEM_SHAPE_FINGERPRINT>
10006869 2 17321272203693367129
11763715 3 17560246945616737235
12160290 23 17391632181789759492
12788726 201 17753883922527695388
133893 2 18043826478807063973
13764800 53 17754741520364721088
14955137 171 18047790089275749667
167882 2 17900811961963257036
1813 80 18412257350365293919
20600515 1 18120341428459344523
20671657 53 18263624265148546679
21033648 29 17842839919652849449
22112679 90 18267888127937506477
23402539 116 18335414617874008926
23419403 2 17841111654666673449
23598288 3 17612312948719007002
266924 1 18128833017507151241
3286 77 17703780423628250634
46194498 28 17975381884901022655
532947 4 18047755085841238372
57100710 210 16702010989888481223
6442390 28 17403736644986111524
6992083 37 18199200502937442915
81228 2 17753333067338966036

> <PUBCHEM_SHAPE_MULTIPOLES>
399.85
7.52
4.91
1.98
0.77
9.64
-0.94
-7.43
0.8
-1.73
3.12
2.23
0.75
-2.64

> <PUBCHEM_SHAPE_SELFOVERLAP>
784.479

> <PUBCHEM_SHAPE_VOLUME>
240.3

> <PUBCHEM_COORDINATE_TYPE>
2
5
10

$$$$
