589365
  -OEChem-11232109013D

 53 52  0     0  0  0  0  0  0999 V2000
    3.2740   -1.4679   -0.6019 O   0  0  0  0  0  0  0  0  0  0  0  0
    4.4086   -0.6496    1.2320 O   0  0  0  0  0  0  0  0  0  0  0  0
   -2.0125   -1.6702   -0.3352 C   0  0  0  0  0  0  0  0  0  0  0  0
   -0.8668   -1.9832    0.6294 C   0  0  0  0  0  0  0  0  0  0  0  0
   -3.3580   -1.4560    0.3650 C   0  0  0  0  0  0  0  0  0  0  0  0
    0.4568   -2.1558   -0.1199 C   0  0  0  0  0  0  0  0  0  0  0  0
   -4.5400   -1.1170   -0.5484 C   0  0  0  0  0  0  0  0  0  0  0  0
    1.6097   -2.4402    0.8474 C   0  0  0  0  0  0  0  0  0  0  0  0
    2.1580    1.9022   -0.1316 C   0  0  0  0  0  0  0  0  0  0  0  0
    0.8622    2.5422   -0.6342 C   0  0  0  0  0  0  0  0  0  0  0  0
    2.9788    1.3272   -1.2903 C   0  0  0  0  0  0  0  0  0  0  0  0
    0.0253    3.0875    0.5243 C   0  0  0  0  0  0  0  0  0  0  0  0
   -5.8418   -0.8594    0.2108 C   0  0  0  0  0  0  0  0  0  0  0  0
    2.9344   -2.6418    0.1217 C   0  0  0  0  0  0  0  0  0  0  0  0
    4.2674    0.6555   -0.8160 C   0  0  0  0  0  0  0  0  0  0  0  0
   -1.2844    3.6969    0.0253 C   0  0  0  0  0  0  0  0  0  0  0  0
    4.0220   -0.5409    0.0765 C   0  0  0  0  0  0  0  0  0  0  0  0
   -6.9593   -0.4392   -0.7316 C   0  0  0  0  0  0  0  0  0  0  0  0
   -2.1345    4.2097    1.1768 C   0  0  0  0  0  0  0  0  0  0  0  0
   -2.1135   -2.4885   -1.0586 H   0  0  0  0  0  0  0  0  0  0  0  0
   -1.7659   -0.7685   -0.9096 H   0  0  0  0  0  0  0  0  0  0  0  0
   -1.0977   -2.8970    1.1897 H   0  0  0  0  0  0  0  0  0  0  0  0
   -0.7724   -1.1699    1.3591 H   0  0  0  0  0  0  0  0  0  0  0  0
   -3.2419   -0.6484    1.0992 H   0  0  0  0  0  0  0  0  0  0  0  0
   -3.6049   -2.3594    0.9370 H   0  0  0  0  0  0  0  0  0  0  0  0
    0.6679   -1.2463   -0.6949 H   0  0  0  0  0  0  0  0  0  0  0  0
    0.3675   -2.9797   -0.8382 H   0  0  0  0  0  0  0  0  0  0  0  0
   -4.6890   -1.9369   -1.2617 H   0  0  0  0  0  0  0  0  0  0  0  0
   -4.2838   -0.2280   -1.1382 H   0  0  0  0  0  0  0  0  0  0  0  0
    1.3843   -3.3381    1.4344 H   0  0  0  0  0  0  0  0  0  0  0  0
    1.6978   -1.6021    1.5492 H   0  0  0  0  0  0  0  0  0  0  0  0
    2.7545    2.6482    0.4072 H   0  0  0  0  0  0  0  0  0  0  0  0
    1.9103    1.1082    0.5826 H   0  0  0  0  0  0  0  0  0  0  0  0
    1.0985    3.3538   -1.3329 H   0  0  0  0  0  0  0  0  0  0  0  0
    0.2778    1.7973   -1.1882 H   0  0  0  0  0  0  0  0  0  0  0  0
    3.2399    2.1353   -1.9844 H   0  0  0  0  0  0  0  0  0  0  0  0
    2.3674    0.6118   -1.8531 H   0  0  0  0  0  0  0  0  0  0  0  0
    0.6006    3.8450    1.0702 H   0  0  0  0  0  0  0  0  0  0  0  0
   -0.1941    2.2770    1.2302 H   0  0  0  0  0  0  0  0  0  0  0  0
   -5.6873   -0.0712    0.9567 H   0  0  0  0  0  0  0  0  0  0  0  0
   -6.1409   -1.7646    0.7516 H   0  0  0  0  0  0  0  0  0  0  0  0
    2.8468   -3.4600   -0.6017 H   0  0  0  0  0  0  0  0  0  0  0  0
    3.7258   -2.9288    0.8242 H   0  0  0  0  0  0  0  0  0  0  0  0
    4.8626    0.3211   -1.6731 H   0  0  0  0  0  0  0  0  0  0  0  0
    4.8827    1.3733   -0.2610 H   0  0  0  0  0  0  0  0  0  0  0  0
   -1.8551    2.9465   -0.5342 H   0  0  0  0  0  0  0  0  0  0  0  0
   -1.0722    4.5232   -0.6630 H   0  0  0  0  0  0  0  0  0  0  0  0
   -6.7016    0.4846   -1.2593 H   0  0  0  0  0  0  0  0  0  0  0  0
   -7.1576   -1.2169   -1.4759 H   0  0  0  0  0  0  0  0  0  0  0  0
   -7.8821   -0.2632   -0.1699 H   0  0  0  0  0  0  0  0  0  0  0  0
   -1.6048    4.9840    1.7409 H   0  0  0  0  0  0  0  0  0  0  0  0
   -2.3930    3.3987    1.8650 H   0  0  0  0  0  0  0  0  0  0  0  0
   -3.0654    4.6425    0.7972 H   0  0  0  0  0  0  0  0  0  0  0  0
  1 14  1  0  0  0  0
  1 17  1  0  0  0  0
  2 17  2  0  0  0  0
  3  4  1  0  0  0  0
  3  5  1  0  0  0  0
  3 20  1  0  0  0  0
  3 21  1  0  0  0  0
  4  6  1  0  0  0  0
  4 22  1  0  0  0  0
  4 23  1  0  0  0  0
  5  7  1  0  0  0  0
  5 24  1  0  0  0  0
  5 25  1  0  0  0  0
  6  8  1  0  0  0  0
  6 26  1  0  0  0  0
  6 27  1  0  0  0  0
  7 13  1  0  0  0  0
  7 28  1  0  0  0  0
  7 29  1  0  0  0  0
  8 14  1  0  0  0  0
  8 30  1  0  0  0  0
  8 31  1  0  0  0  0
  9 10  1  0  0  0  0
  9 11  1  0  0  0  0
  9 32  1  0  0  0  0
  9 33  1  0  0  0  0
 10 12  1  0  0  0  0
 10 34  1  0  0  0  0
 10 35  1  0  0  0  0
 11 15  1  0  0  0  0
 11 36  1  0  0  0  0
 11 37  1  0  0  0  0
 12 16  1  0  0  0  0
 12 38  1  0  0  0  0
 12 39  1  0  0  0  0
 13 18  1  0  0  0  0
 13 40  1  0  0  0  0
 13 41  1  0  0  0  0
 14 42  1  0  0  0  0
 14 43  1  0  0  0  0
 15 17  1  0  0  0  0
 15 44  1  0  0  0  0
 15 45  1  0  0  0  0
 16 19  1  0  0  0  0
 16 46  1  0  0  0  0
 16 47  1  0  0  0  0
 18 48  1  0  0  0  0
 18 49  1  0  0  0  0
 18 50  1  0  0  0  0
 19 51  1  0  0  0  0
 19 52  1  0  0  0  0
 19 53  1  0  0  0  0
M  END
> <PUBCHEM_COMPOUND_CID>
589365

> <PUBCHEM_CONFORMER_RMSD>
1.4

> <PUBCHEM_CONFORMER_DIVERSEORDER>
1
53
2
35
30
16
4
21
8
47
76
52
58
50
19
34
14
70
44
6
67
46
51
77
3
23
49
32
56
7
74
39
72
73
38
18
11
66
33
64
45
41
31
59
75
40
65
57
55
17
12
42
28
63
54
37
61
29
10
26
71
20
22
69
25
13
60
15
24
78
43
27
9
48
68
62
5
36

> <PUBCHEM_MMFF94_PARTIAL_CHARGES>
5
1 -0.43
14 0.28
15 0.06
17 0.66
2 -0.57

> <PUBCHEM_EFFECTIVE_ROTOR_COUNT>
15

> <PUBCHEM_PHARMACOPHORE_FEATURES>
5
1 18 hydrophobe
1 19 hydrophobe
1 2 acceptor
3 10 12 16 hydrophobe
3 9 11 15 hydrophobe

> <PUBCHEM_HEAVY_ATOM_COUNT>
19

> <PUBCHEM_ATOM_DEF_STEREO_COUNT>
0

> <PUBCHEM_ATOM_UDEF_STEREO_COUNT>
0

> <PUBCHEM_BOND_DEF_STEREO_COUNT>
0

> <PUBCHEM_BOND_UDEF_STEREO_COUNT>
0

> <PUBCHEM_ISOTOPIC_ATOM_COUNT>
0

> <PUBCHEM_COMPONENT_COUNT>
1

> <PUBCHEM_CACTVS_TAUTO_COUNT>
1

> <PUBCHEM_CONFORMER_ID>
0008FE3500000001

> <PUBCHEM_MMFF94_ENERGY>
-1.0051

> <PUBCHEM_FEATURE_SELFOVERLAP>
25.386

> <PUBCHEM_SHAPE_FINGERPRINT>
11646440 116 18410575119038856362
12769317 202 18187069681343101223
12788726 201 18339656615153575172
14464042 87 18342179951373362745
14681490 219 18411416233256162629
14931854 50 18335993020549471708
15210252 30 18042128833017561996
17093844 170 18266175209386990488
19734167 9 17693064411525846866
20621476 13 18122345954226255241
21344244 78 18044910451201518122
3014063 31 18410575097822579821
338550 245 18263094214486584381
3524813 1 17968366939815823958
6443956 14 18336829809048999189
653340 110 18269832030183694744

> <PUBCHEM_SHAPE_MULTIPOLES>
379.27
11.83
5.16
1.04
17.69
5.98
-0.03
-5.28
2.3
0.42
-1.47
-0.31
0.28
-1.42

> <PUBCHEM_SHAPE_SELFOVERLAP>
691.463

> <PUBCHEM_SHAPE_VOLUME>
241.4

> <PUBCHEM_COORDINATE_TYPE>
2
5
10

$$$$
