5905098
  -OEChem-11232109043D

 31 32  0     1  0  0  0  0  0999 V2000
    2.4001    0.9569    0.0874 O   0  0  0  0  0  0  0  0  0  0  0  0
    1.8232   -1.3490    0.0858 O   0  0  0  0  0  0  0  0  0  0  0  0
    3.8029    0.6729    0.1009 C   0  0  1  0  0  0  0  0  0  0  0  0
    4.0542   -0.6828   -0.5626 C   0  0  0  0  0  0  0  0  0  0  0  0
    3.1922   -1.7525    0.0963 C   0  0  0  0  0  0  0  0  0  0  0  0
    1.6585   -0.0836    0.7287 C   0  0  2  0  0  0  0  0  0  0  0  0
    4.5206    1.7945   -0.6350 C   0  0  0  0  0  0  0  0  0  0  0  0
    0.2135    0.2715    0.6661 C   0  0  0  0  0  0  0  0  0  0  0  0
   -0.7118   -0.4990    0.0738 C   0  0  0  0  0  0  0  0  0  0  0  0
   -2.1472   -0.1837   -0.0196 C   0  0  0  0  0  0  0  0  0  0  0  0
   -2.5667    1.1273    0.1422 C   0  0  0  0  0  0  0  0  0  0  0  0
   -3.0523   -1.2037   -0.2675 C   0  0  0  0  0  0  0  0  0  0  0  0
   -3.9264    1.4260    0.0541 C   0  0  0  0  0  0  0  0  0  0  0  0
   -4.4119   -0.9048   -0.3558 C   0  0  0  0  0  0  0  0  0  0  0  0
   -4.8488    0.4101   -0.1949 C   0  0  0  0  0  0  0  0  0  0  0  0
    4.1465    0.6556    1.1429 H   0  0  0  0  0  0  0  0  0  0  0  0
    5.1133   -0.9563   -0.5142 H   0  0  0  0  0  0  0  0  0  0  0  0
    3.7665   -0.6194   -1.6199 H   0  0  0  0  0  0  0  0  0  0  0  0
    3.2720   -2.6962   -0.4520 H   0  0  0  0  0  0  0  0  0  0  0  0
    3.5074   -1.9375    1.1297 H   0  0  0  0  0  0  0  0  0  0  0  0
    1.9570   -0.1600    1.7826 H   0  0  0  0  0  0  0  0  0  0  0  0
    5.6023    1.6314   -0.6507 H   0  0  0  0  0  0  0  0  0  0  0  0
    4.1621    1.8807   -1.6666 H   0  0  0  0  0  0  0  0  0  0  0  0
    4.3190    2.7567   -0.1519 H   0  0  0  0  0  0  0  0  0  0  0  0
   -0.0535    1.2018    1.1586 H   0  0  0  0  0  0  0  0  0  0  0  0
   -0.4372   -1.4413   -0.3931 H   0  0  0  0  0  0  0  0  0  0  0  0
   -1.8831    1.9525    0.3152 H   0  0  0  0  0  0  0  0  0  0  0  0
   -2.7283   -2.2334   -0.3937 H   0  0  0  0  0  0  0  0  0  0  0  0
   -4.2669    2.4504    0.1742 H   0  0  0  0  0  0  0  0  0  0  0  0
   -5.1304   -1.6958   -0.5496 H   0  0  0  0  0  0  0  0  0  0  0  0
   -5.9074    0.6428   -0.2648 H   0  0  0  0  0  0  0  0  0  0  0  0
  1  3  1  0  0  0  0
  1  6  1  0  0  0  0
  2  5  1  0  0  0  0
  2  6  1  0  0  0  0
  3  4  1  0  0  0  0
  3  7  1  0  0  0  0
  3 16  1  0  0  0  0
  4  5  1  0  0  0  0
  4 17  1  0  0  0  0
  4 18  1  0  0  0  0
  5 19  1  0  0  0  0
  5 20  1  0  0  0  0
  6  8  1  0  0  0  0
  6 21  1  0  0  0  0
  7 22  1  0  0  0  0
  7 23  1  0  0  0  0
  7 24  1  0  0  0  0
  8  9  2  0  0  0  0
  8 25  1  0  0  0  0
  9 10  1  0  0  0  0
  9 26  1  0  0  0  0
 10 11  2  0  0  0  0
 10 12  1  0  0  0  0
 11 13  1  0  0  0  0
 11 27  1  0  0  0  0
 12 14  2  0  0  0  0
 12 28  1  0  0  0  0
 13 15  2  0  0  0  0
 13 29  1  0  0  0  0
 14 15  1  0  0  0  0
 14 30  1  0  0  0  0
 15 31  1  0  0  0  0
M  END
> <PUBCHEM_COMPOUND_CID>
5905098

> <PUBCHEM_CONFORMER_RMSD>
0.6

> <PUBCHEM_CONFORMER_DIVERSEORDER>
1
5
13
3
17
4
22
16
21
6
8
7
10
9
11
14
15
2
20
23
19
18
12

> <PUBCHEM_MMFF94_PARTIAL_CHARGES>
20
1 -0.56
10 0.03
11 -0.15
12 -0.15
13 -0.15
14 -0.15
15 -0.15
2 -0.56
25 0.15
26 0.15
27 0.15
28 0.15
29 0.15
3 0.28
30 0.15
31 0.15
5 0.28
6 0.7
8 -0.29
9 -0.18

> <PUBCHEM_EFFECTIVE_ROTOR_COUNT>
3.2

> <PUBCHEM_PHARMACOPHORE_FEATURES>
4
1 1 acceptor
1 2 acceptor
6 1 2 3 4 5 6 rings
6 10 11 12 13 14 15 rings

> <PUBCHEM_HEAVY_ATOM_COUNT>
15

> <PUBCHEM_ATOM_DEF_STEREO_COUNT>
0

> <PUBCHEM_ATOM_UDEF_STEREO_COUNT>
2

> <PUBCHEM_BOND_DEF_STEREO_COUNT>
1

> <PUBCHEM_BOND_UDEF_STEREO_COUNT>
0

> <PUBCHEM_ISOTOPIC_ATOM_COUNT>
0

> <PUBCHEM_COMPONENT_COUNT>
1

> <PUBCHEM_CACTVS_TAUTO_COUNT>
1

> <PUBCHEM_CONFORMER_ID>
005A1ACA00000001

> <PUBCHEM_MMFF94_ENERGY>
34.6602

> <PUBCHEM_FEATURE_SELFOVERLAP>
20.333

> <PUBCHEM_SHAPE_FINGERPRINT>
10014705 185 18187078439134527341
10498660 4 17895464839559954861
10616163 171 18343018943096720455
11287383 113 18114185267239739627
11471102 20 18410012130942211032
11543360 7 18410293626913749419
12107183 9 17691125937612457665
12616999 72 18272652350876415334
12707595 3 16559028307104531546
13167823 11 18412543193481973935
13760787 19 18343582957964134519
14415576 193 18410014325533329878
14528608 73 18409732902059511596
15196674 1 18411136926520212621
15239154 128 18408042888036406285
15242433 33 18413951689536328391
15536298 74 18411699880969191244
17834072 33 18411981377278209807
18186145 218 17748825189713172122
19422 9 18341612585887690411
1986462 14 18343301449023025437
200 152 17989204837056591675
20279233 1 15068620483191566569
20300324 65 18342174492738922209
204376 136 15502377841533969425
20645477 70 18271528611259293958
21652331 79 18334294253842192965
22485316 2 18273210906650972967
23402539 116 18334568049237588540
23402655 69 18413671309633775460
23559900 14 18200027331434536010
245318 6 16737221926456262748
29717793 49 17917430886885222372
300161 21 18411129238771540793
3004659 81 18342458089308521638
3545911 37 18409450297290045945
4047638 21 17821730546398101328
4214541 1 18340768156942126913
449060 50 18259987084777993965
474 4 17676774287514028772
4990 188 18131075917826729086
5104073 3 18410573976640710283
522135 26 18411980235059690434
5281201 14 18336830805734418212
542803 24 18040716969750232797
543358 83 18340492158080250410
58051976 100 18130783520790402343
633830 44 18187643570472437907
67856867 119 18409720773425139696
77779 3 18411138021958510123
90127 26 18040723515449418001
93112 12 18412824677021914107
9709674 26 18412549807700292567

> <PUBCHEM_SHAPE_MULTIPOLES>
296.95
11.01
1.66
0.74
0.98
0.05
-0.01
1.79
2.01
-0.86
0.15
-0.2
0.03
-0.46

> <PUBCHEM_SHAPE_SELFOVERLAP>
616.573

> <PUBCHEM_SHAPE_VOLUME>
167.8

> <PUBCHEM_COORDINATE_TYPE>
2
5
10

$$$$
