5956805
  -OEChem-11232109193D

 39 38  0     0  0  0  0  0  0999 V2000
   -0.7918   -2.0612   -0.6353 O   0  0  0  0  0  0  0  0  0  0  0  0
   -1.1254   -0.6450    1.1526 O   0  0  0  0  0  0  0  0  0  0  0  0
   -3.4307    0.7445    1.1083 O   0  0  0  0  0  0  0  0  0  0  0  0
    3.6536   -0.1621   -0.6253 C   0  0  0  0  0  0  0  0  0  0  0  0
    3.3798    1.3078   -0.2805 C   0  0  0  0  0  0  0  0  0  0  0  0
    2.6498   -1.1260   -0.0282 C   0  0  0  0  0  0  0  0  0  0  0  0
    2.0412    1.7786   -0.7781 C   0  0  0  0  0  0  0  0  0  0  0  0
    1.5173   -1.5319   -0.6348 C   0  0  0  0  0  0  0  0  0  0  0  0
    2.9753   -1.6101    1.3618 C   0  0  0  0  0  0  0  0  0  0  0  0
    0.9736    2.1633   -0.0536 C   0  0  0  0  0  0  0  0  0  0  0  0
    0.4657   -2.4511   -0.1000 C   0  0  0  0  0  0  0  0  0  0  0  0
    0.9159    2.2212    1.4464 C   0  0  0  0  0  0  0  0  0  0  0  0
   -0.2941    2.5981   -0.7400 C   0  0  0  0  0  0  0  0  0  0  0  0
   -2.7868   -0.8248   -0.6167 C   0  0  0  0  0  0  0  0  0  0  0  0
   -1.4960   -1.1403    0.0979 C   0  0  0  0  0  0  0  0  0  0  0  0
   -3.6875    0.2067    0.0328 C   0  0  0  0  0  0  0  0  0  0  0  0
   -4.9598    0.5324   -0.7074 C   0  0  0  0  0  0  0  0  0  0  0  0
    4.6673   -0.4317   -0.3047 H   0  0  0  0  0  0  0  0  0  0  0  0
    3.6535   -0.2783   -1.7178 H   0  0  0  0  0  0  0  0  0  0  0  0
    3.4996    1.4601    0.7959 H   0  0  0  0  0  0  0  0  0  0  0  0
    4.1510    1.9273   -0.7553 H   0  0  0  0  0  0  0  0  0  0  0  0
    1.9524    1.7927   -1.8640 H   0  0  0  0  0  0  0  0  0  0  0  0
    1.3416   -1.1682   -1.6469 H   0  0  0  0  0  0  0  0  0  0  0  0
    2.4017   -2.4834    1.6795 H   0  0  0  0  0  0  0  0  0  0  0  0
    4.0285   -1.9078    1.4168 H   0  0  0  0  0  0  0  0  0  0  0  0
    2.8112   -0.8070    2.0875 H   0  0  0  0  0  0  0  0  0  0  0  0
    0.6632   -3.4649   -0.4640 H   0  0  0  0  0  0  0  0  0  0  0  0
    0.4213   -2.4994    0.9917 H   0  0  0  0  0  0  0  0  0  0  0  0
    0.0260    1.6999    1.8129 H   0  0  0  0  0  0  0  0  0  0  0  0
    1.7754    1.7593    1.9358 H   0  0  0  0  0  0  0  0  0  0  0  0
    0.8595    3.2631    1.7782 H   0  0  0  0  0  0  0  0  0  0  0  0
   -0.5289    3.6352   -0.4784 H   0  0  0  0  0  0  0  0  0  0  0  0
   -0.2206    2.5389   -1.8309 H   0  0  0  0  0  0  0  0  0  0  0  0
   -1.1309    1.9652   -0.4306 H   0  0  0  0  0  0  0  0  0  0  0  0
   -2.5322   -0.4522   -1.6149 H   0  0  0  0  0  0  0  0  0  0  0  0
   -3.3598   -1.7545   -0.7006 H   0  0  0  0  0  0  0  0  0  0  0  0
   -5.5182    1.2985   -0.1623 H   0  0  0  0  0  0  0  0  0  0  0  0
   -5.5767   -0.3659   -0.7882 H   0  0  0  0  0  0  0  0  0  0  0  0
   -4.7173    0.9151   -1.7018 H   0  0  0  0  0  0  0  0  0  0  0  0
  1 11  1  0  0  0  0
  1 15  1  0  0  0  0
  2 15  2  0  0  0  0
  3 16  2  0  0  0  0
  4  5  1  0  0  0  0
  4  6  1  0  0  0  0
  4 18  1  0  0  0  0
  4 19  1  0  0  0  0
  5  7  1  0  0  0  0
  5 20  1  0  0  0  0
  5 21  1  0  0  0  0
  6  8  2  0  0  0  0
  6  9  1  0  0  0  0
  7 10  2  0  0  0  0
  7 22  1  0  0  0  0
  8 11  1  0  0  0  0
  8 23  1  0  0  0  0
  9 24  1  0  0  0  0
  9 25  1  0  0  0  0
  9 26  1  0  0  0  0
 10 12  1  0  0  0  0
 10 13  1  0  0  0  0
 11 27  1  0  0  0  0
 11 28  1  0  0  0  0
 12 29  1  0  0  0  0
 12 30  1  0  0  0  0
 12 31  1  0  0  0  0
 13 32  1  0  0  0  0
 13 33  1  0  0  0  0
 13 34  1  0  0  0  0
 14 15  1  0  0  0  0
 14 16  1  0  0  0  0
 14 35  1  0  0  0  0
 14 36  1  0  0  0  0
 16 17  1  0  0  0  0
 17 37  1  0  0  0  0
 17 38  1  0  0  0  0
 17 39  1  0  0  0  0
M  END
> <PUBCHEM_COMPOUND_CID>
5956805

> <PUBCHEM_CONFORMER_RMSD>
1

> <PUBCHEM_CONFORMER_DIVERSEORDER>
12
333
281
108
531
216
56
148
497
2
324
11
299
3
85
184
28
430
15
323
397
13
81
138
319
49
59
242
102
349
9
247
160
312
304
445
125
465
426
289
187
104
267
543
457
53
93
17
336
258
36
189
526
332
506
238
25
454
232
392
436
37
5
367
186
270
116
166
296
57
79
72
212
512
366
539
372
170
70
7
217
301
456
113
538
221
16
475
290
4
190
449
10
479
174
68
22
34
179
52
27
23
124
76
535
326
244
8
440
150
158
268
368
61
353
122
220
69
18
498
263
554
199
278
45
47
94
204
64
437
117
378
345
32
105
420
279
38
50
234
226
98
285
156
206
41
42
44
1
422

> <PUBCHEM_MMFF94_PARTIAL_CHARGES>
19
1 -0.43
10 -0.28
11 0.42
12 0.14
13 0.14
14 0.12
15 0.66
16 0.45
17 0.06
2 -0.57
22 0.15
23 0.15
3 -0.57
4 0.14
5 0.14
6 -0.28
7 -0.29
8 -0.29
9 0.14

> <PUBCHEM_EFFECTIVE_ROTOR_COUNT>
8

> <PUBCHEM_PHARMACOPHORE_FEATURES>
6
1 14 anion
1 2 acceptor
1 3 acceptor
1 9 hydrophobe
3 10 12 13 hydrophobe
4 4 5 6 7 hydrophobe

> <PUBCHEM_HEAVY_ATOM_COUNT>
17

> <PUBCHEM_ATOM_DEF_STEREO_COUNT>
0

> <PUBCHEM_ATOM_UDEF_STEREO_COUNT>
0

> <PUBCHEM_BOND_DEF_STEREO_COUNT>
1

> <PUBCHEM_BOND_UDEF_STEREO_COUNT>
0

> <PUBCHEM_ISOTOPIC_ATOM_COUNT>
0

> <PUBCHEM_COMPONENT_COUNT>
1

> <PUBCHEM_CACTVS_TAUTO_COUNT>
5

> <PUBCHEM_CONFORMER_ID>
005AE4C50000000C

> <PUBCHEM_MMFF94_ENERGY>
15.8563

> <PUBCHEM_FEATURE_SELFOVERLAP>
30.46

> <PUBCHEM_SHAPE_FINGERPRINT>
104564 63 18267030453239241348
10759866 29 17822580404519872318
10980938 120 18408606980514256494
11086676 242 18261384525713350106
14178342 30 17834380603352936272
14251717 144 18413107247347069711
14251745 187 18410854403661613904
14713325 29 15877046621421556036
17093844 170 18262507087924955301
18219364 16 18335717073565019923
20233049 118 18343304803376795824
20606313 2 18411136922341536879
21249577 28 18411421670030573008
2803657 2 17987542414272681216
3060560 45 18273216391456430110
3286 77 16199589065814191542
3524813 1 18114455678433443773
474 4 18410576167517408275
484985 159 13892687098017138444
5939293 188 18341047501557082068
7832392 63 18340485694181207582

> <PUBCHEM_SHAPE_MULTIPOLES>
332.24
7.23
3.05
1.15
6.85
0.68
-0.36
0.39
0.64
-1.5
0.03
-0.18
0.18
-0.4

> <PUBCHEM_SHAPE_SELFOVERLAP>
634.461

> <PUBCHEM_SHAPE_VOLUME>
203.7

> <PUBCHEM_COORDINATE_TYPE>
2
5
10

$$$$
