5978897
  -OEChem-11232109023D

 28 27  0     0  0  0  0  0  0999 V2000
   -1.0805    0.0831   -0.1953 O   0  0  0  0  0  0  0  0  0  0  0  0
   -2.6709   -1.5628    0.0903 O   0  0  0  0  0  0  0  0  0  0  0  0
   -3.2880    0.7839    0.2892 C   0  0  0  0  0  0  0  0  0  0  0  0
   -3.8870    1.2296   -1.0394 C   0  0  0  0  0  0  0  0  0  0  0  0
   -4.3832    0.4075    1.2838 C   0  0  0  0  0  0  0  0  0  0  0  0
   -2.3441   -0.3835    0.0601 C   0  0  0  0  0  0  0  0  0  0  0  0
   -0.0910   -0.9062   -0.4410 C   0  0  0  0  0  0  0  0  0  0  0  0
    1.2148   -0.2265   -0.6982 C   0  0  0  0  0  0  0  0  0  0  0  0
    2.3118   -0.4207    0.0487 C   0  0  0  0  0  0  0  0  0  0  0  0
    3.5722    0.2372   -0.2115 C   0  0  0  0  0  0  0  0  0  0  0  0
    4.6689    0.0427    0.5357 C   0  0  0  0  0  0  0  0  0  0  0  0
    5.9769    0.7157    0.2775 C   0  0  0  0  0  0  0  0  0  0  0  0
   -2.7123    1.6087    0.7274 H   0  0  0  0  0  0  0  0  0  0  0  0
   -4.5512    2.0888   -0.9008 H   0  0  0  0  0  0  0  0  0  0  0  0
   -4.4628    0.4230   -1.5066 H   0  0  0  0  0  0  0  0  0  0  0  0
   -3.0997    1.5200   -1.7435 H   0  0  0  0  0  0  0  0  0  0  0  0
   -5.0255    1.2676    1.4993 H   0  0  0  0  0  0  0  0  0  0  0  0
   -3.9478    0.0633    2.2282 H   0  0  0  0  0  0  0  0  0  0  0  0
   -5.0153   -0.4001    0.8981 H   0  0  0  0  0  0  0  0  0  0  0  0
   -0.0260   -1.5819    0.4202 H   0  0  0  0  0  0  0  0  0  0  0  0
   -0.3680   -1.4889   -1.3272 H   0  0  0  0  0  0  0  0  0  0  0  0
    1.2493    0.4526   -1.5473 H   0  0  0  0  0  0  0  0  0  0  0  0
    2.2707   -1.1026    0.8943 H   0  0  0  0  0  0  0  0  0  0  0  0
    3.6142    0.9187   -1.0574 H   0  0  0  0  0  0  0  0  0  0  0  0
    4.6370   -0.6369    1.3839 H   0  0  0  0  0  0  0  0  0  0  0  0
    5.9369    1.3836   -0.5888 H   0  0  0  0  0  0  0  0  0  0  0  0
    6.2702    1.3069    1.1505 H   0  0  0  0  0  0  0  0  0  0  0  0
    6.7519   -0.0347    0.0940 H   0  0  0  0  0  0  0  0  0  0  0  0
  1  6  1  0  0  0  0
  1  7  1  0  0  0  0
  2  6  2  0  0  0  0
  3  4  1  0  0  0  0
  3  5  1  0  0  0  0
  3  6  1  0  0  0  0
  3 13  1  0  0  0  0
  4 14  1  0  0  0  0
  4 15  1  0  0  0  0
  4 16  1  0  0  0  0
  5 17  1  0  0  0  0
  5 18  1  0  0  0  0
  5 19  1  0  0  0  0
  7  8  1  0  0  0  0
  7 20  1  0  0  0  0
  7 21  1  0  0  0  0
  8  9  2  0  0  0  0
  8 22  1  0  0  0  0
  9 10  1  0  0  0  0
  9 23  1  0  0  0  0
 10 11  2  0  0  0  0
 10 24  1  0  0  0  0
 11 12  1  0  0  0  0
 11 25  1  0  0  0  0
 12 26  1  0  0  0  0
 12 27  1  0  0  0  0
 12 28  1  0  0  0  0
M  END
> <PUBCHEM_COMPOUND_CID>
5978897

> <PUBCHEM_CONFORMER_RMSD>
0.6

> <PUBCHEM_CONFORMER_DIVERSEORDER>
1
53
106
136
41
46
134
108
86
35
62
56
90
100
117
71
76
128
64
78
17
125
132
72
127
88
49
50
130
114
39
48
84
124
111
122
77
29
26
112
33
74
81
58
83
59
89
2
103
110
44
118
116
14
68
73
120
36
10
65
70
102
97
82
95
37
45
27
107
79
113
129
109
99
22
91
85
126
66
19
9
101
105
7
47
135
38
98
55
54
52
119
18
80
75
24
123
69
121
51
5
11
67
34
131
94
104
115
25
40
96
61
32
43
93
30
4
92
15
12
63
87
42
133
16
20
57
13
3
31
23
60
21
28
6
8

> <PUBCHEM_MMFF94_PARTIAL_CHARGES>
14
1 -0.43
10 -0.15
11 -0.29
12 0.14
2 -0.57
22 0.15
23 0.15
24 0.15
25 0.15
3 0.06
6 0.66
7 0.42
8 -0.29
9 -0.15

> <PUBCHEM_EFFECTIVE_ROTOR_COUNT>
5

> <PUBCHEM_PHARMACOPHORE_FEATURES>
3
1 12 hydrophobe
1 2 acceptor
3 3 4 5 hydrophobe

> <PUBCHEM_HEAVY_ATOM_COUNT>
12

> <PUBCHEM_ATOM_DEF_STEREO_COUNT>
0

> <PUBCHEM_ATOM_UDEF_STEREO_COUNT>
0

> <PUBCHEM_BOND_DEF_STEREO_COUNT>
2

> <PUBCHEM_BOND_UDEF_STEREO_COUNT>
0

> <PUBCHEM_ISOTOPIC_ATOM_COUNT>
0

> <PUBCHEM_COMPONENT_COUNT>
1

> <PUBCHEM_CACTVS_TAUTO_COUNT>
1

> <PUBCHEM_CONFORMER_ID>
005B3B1100000001

> <PUBCHEM_MMFF94_ENERGY>
8.3239

> <PUBCHEM_FEATURE_SELFOVERLAP>
15.223

> <PUBCHEM_SHAPE_FINGERPRINT>
10014705 185 18410005533698481733
100836 57 17846786208618551920
114248 4 12463564093514437372
13214271 11 18272931643582368159
13675066 3 17749112157947682038
14123238 8 12251906997182007082
14123255 352 18410288099470427796
14251718 22 13326564181702497868
14252887 29 15719387305558861386
14455015 7 7781514849837177644
15501527 16 18342176687287927448
17834072 33 12966836971090948616
17834076 25 17561366175249276376
18342897 14 18413669123943912208
20300324 65 15841550756317319777
20325693 3 13183018506527559417
20432913 95 14490190488414828912
20645477 56 18411420605078896847
20645477 70 16916795028929435638
20767249 213 18412542115555718557
20828058 44 15936130763644555824
20871999 31 14261342536540879909
21119208 17 12751235895936281888
23402539 116 17967807262848696526
23402655 69 15051739655236987400
26918003 58 15719392836654013389
42 15 15936411126298537740
42788 4 18343020004337887122
449060 50 18411422795406833198
49783359 22 14273735161887968896
53428517 29 18186237320880592956

> <PUBCHEM_SHAPE_MULTIPOLES>
235.22
12.29
1.11
0.95
11.49
0.12
-0.05
-4.32
-2.56
-0.79
0.1
-0.83
-0.16
0.33

> <PUBCHEM_SHAPE_SELFOVERLAP>
440.564

> <PUBCHEM_SHAPE_VOLUME>
147

> <PUBCHEM_COORDINATE_TYPE>
2
5
10

$$$$
