5980396
  -OEChem-11232109163D

 38 37  0     0  0  0  0  0  0999 V2000
    1.1063   -0.7097    0.3665 O   0  0  0  0  0  0  0  0  0  0  0  0
    3.1029   -1.8663    0.4885 O   0  0  0  0  0  0  0  0  0  0  0  0
   -3.4249   -1.2095   -0.0974 C   0  0  0  0  0  0  0  0  0  0  0  0
   -3.7016    0.2642   -0.4231 C   0  0  0  0  0  0  0  0  0  0  0  0
   -1.9658   -1.5970   -0.2162 C   0  0  0  0  0  0  0  0  0  0  0  0
   -2.9707    1.2058    0.4936 C   0  0  0  0  0  0  0  0  0  0  0  0
   -1.0706   -1.5431    0.7894 C   0  0  0  0  0  0  0  0  0  0  0  0
   -1.5297   -2.0368   -1.5905 C   0  0  0  0  0  0  0  0  0  0  0  0
   -1.9889    2.0732    0.1832 C   0  0  0  0  0  0  0  0  0  0  0  0
    0.3866   -1.8761    0.7428 C   0  0  0  0  0  0  0  0  0  0  0  0
   -1.3693    2.9342    1.2518 C   0  0  0  0  0  0  0  0  0  0  0  0
   -1.4269    2.2942   -1.1922 C   0  0  0  0  0  0  0  0  0  0  0  0
    2.4610   -0.8494    0.2780 C   0  0  0  0  0  0  0  0  0  0  0  0
    3.0299    0.4562   -0.1204 C   0  0  0  0  0  0  0  0  0  0  0  0
    4.3533    0.5893   -0.2773 C   0  0  0  0  0  0  0  0  0  0  0  0
    5.0084    1.8707   -0.6768 C   0  0  0  0  0  0  0  0  0  0  0  0
   -3.7695   -1.4215    0.9239 H   0  0  0  0  0  0  0  0  0  0  0  0
   -4.0306   -1.8505   -0.7500 H   0  0  0  0  0  0  0  0  0  0  0  0
   -4.7766    0.4508   -0.3069 H   0  0  0  0  0  0  0  0  0  0  0  0
   -3.4819    0.4544   -1.4771 H   0  0  0  0  0  0  0  0  0  0  0  0
   -3.2934    1.1514    1.5331 H   0  0  0  0  0  0  0  0  0  0  0  0
   -1.4255   -1.1977    1.7595 H   0  0  0  0  0  0  0  0  0  0  0  0
   -1.8887   -1.3250   -2.3420 H   0  0  0  0  0  0  0  0  0  0  0  0
   -1.9573   -3.0182   -1.8208 H   0  0  0  0  0  0  0  0  0  0  0  0
   -0.4472   -2.0990   -1.7225 H   0  0  0  0  0  0  0  0  0  0  0  0
    0.5975   -2.7001    0.0528 H   0  0  0  0  0  0  0  0  0  0  0  0
    0.7049   -2.1952    1.7427 H   0  0  0  0  0  0  0  0  0  0  0  0
   -1.5080    3.9937    1.0129 H   0  0  0  0  0  0  0  0  0  0  0  0
   -1.8083    2.7563    2.2392 H   0  0  0  0  0  0  0  0  0  0  0  0
   -0.2957    2.7312    1.3252 H   0  0  0  0  0  0  0  0  0  0  0  0
   -0.3431    2.1346   -1.1826 H   0  0  0  0  0  0  0  0  0  0  0  0
   -1.8394    1.6262   -1.9502 H   0  0  0  0  0  0  0  0  0  0  0  0
   -1.6196    3.3222   -1.5164 H   0  0  0  0  0  0  0  0  0  0  0  0
    2.3540    1.2898   -0.2788 H   0  0  0  0  0  0  0  0  0  0  0  0
    5.0174   -0.2555   -0.1147 H   0  0  0  0  0  0  0  0  0  0  0  0
    5.7165    2.1839    0.0966 H   0  0  0  0  0  0  0  0  0  0  0  0
    4.2848    2.6788   -0.8241 H   0  0  0  0  0  0  0  0  0  0  0  0
    5.5595    1.7316   -1.6119 H   0  0  0  0  0  0  0  0  0  0  0  0
  1 10  1  0  0  0  0
  1 13  1  0  0  0  0
  2 13  2  0  0  0  0
  3  4  1  0  0  0  0
  3  5  1  0  0  0  0
  3 17  1  0  0  0  0
  3 18  1  0  0  0  0
  4  6  1  0  0  0  0
  4 19  1  0  0  0  0
  4 20  1  0  0  0  0
  5  7  2  0  0  0  0
  5  8  1  0  0  0  0
  6  9  2  0  0  0  0
  6 21  1  0  0  0  0
  7 10  1  0  0  0  0
  7 22  1  0  0  0  0
  8 23  1  0  0  0  0
  8 24  1  0  0  0  0
  8 25  1  0  0  0  0
  9 11  1  0  0  0  0
  9 12  1  0  0  0  0
 10 26  1  0  0  0  0
 10 27  1  0  0  0  0
 11 28  1  0  0  0  0
 11 29  1  0  0  0  0
 11 30  1  0  0  0  0
 12 31  1  0  0  0  0
 12 32  1  0  0  0  0
 12 33  1  0  0  0  0
 13 14  1  0  0  0  0
 14 15  2  0  0  0  0
 14 34  1  0  0  0  0
 15 16  1  0  0  0  0
 15 35  1  0  0  0  0
 16 36  1  0  0  0  0
 16 37  1  0  0  0  0
 16 38  1  0  0  0  0
M  END
> <PUBCHEM_COMPOUND_CID>
5980396

> <PUBCHEM_CONFORMER_RMSD>
0.8

> <PUBCHEM_CONFORMER_DIVERSEORDER>
7
229
51
91
46
2
194
22
118
251
45
272
169
270
146
47
40
190
75
212
132
105
143
271
227
226
95
148
5
264
62
228
268
141
21
180
186
39
140
135
156
59
253
133
83
41
147
126
122
85
233
206
14
178
121
38
177
134
244
104
252
238
240
256
115
82
187
8
52
53
200
57
54
210
263
261
10
185
249
31
94
167
234
58
250
258
188
32
267
111
9
215
183
260
239
19
129
76
15
257
224
273
107
243
138
97
81
49
152
17
166
90
101
216
199
78
11
174
246
108
202
42
231
162
93
265
92
66
222
86
213
64
196
145
117
16
24
158
181
3
28
218
176
198
217
48
33
164
236
87
96
221
197
13
71
223
125
128
56
109
160
165
74
102
189
12
155
44
137
173
61
69
84
241
161
168
242
232
262
72
103
211
70
25
201
191
43
266
136
170
175
139
99
37
130
220
119
245
88
225
230
172
159
208
120
20
179
184
34
214
60
23
163
144
6
131
259
142
205
269
100
153
219
154
27
18
79
171
157
35
98
207
30
55
247
203
149
204
182
65
123
209
106
195
127
73
235
89
114
192
255
116
237
1
68
4
26
150
67
151
124
193
63
248
29
80
50
110
112
113
77
36
254

> <PUBCHEM_MMFF94_PARTIAL_CHARGES>
20
1 -0.43
10 0.42
11 0.14
12 0.14
13 0.71
14 -0.14
15 -0.29
16 0.14
2 -0.57
21 0.15
22 0.15
3 0.14
34 0.15
35 0.15
4 0.14
5 -0.28
6 -0.29
7 -0.29
8 0.14
9 -0.28

> <PUBCHEM_EFFECTIVE_ROTOR_COUNT>
7

> <PUBCHEM_PHARMACOPHORE_FEATURES>
5
1 16 hydrophobe
1 2 acceptor
1 8 hydrophobe
3 9 11 12 hydrophobe
4 3 4 5 6 hydrophobe

> <PUBCHEM_HEAVY_ATOM_COUNT>
16

> <PUBCHEM_ATOM_DEF_STEREO_COUNT>
0

> <PUBCHEM_ATOM_UDEF_STEREO_COUNT>
0

> <PUBCHEM_BOND_DEF_STEREO_COUNT>
2

> <PUBCHEM_BOND_UDEF_STEREO_COUNT>
0

> <PUBCHEM_ISOTOPIC_ATOM_COUNT>
0

> <PUBCHEM_COMPONENT_COUNT>
1

> <PUBCHEM_CACTVS_TAUTO_COUNT>
1

> <PUBCHEM_CONFORMER_ID>
005B40EC00000007

> <PUBCHEM_MMFF94_ENERGY>
17.0031

> <PUBCHEM_FEATURE_SELFOVERLAP>
25.38

> <PUBCHEM_SHAPE_FINGERPRINT>
10498660 4 18335699429528105597
10730089 173 18339930406670903868
12054548 360 18272362126555489921
14123250 116 18341901740398204664
14123260 362 17968391116655841438
14251745 187 18339639070217361608
14251764 75 18194973937059698681
15442244 35 18192427472835426962
17834072 32 18120936105441779813
18785283 64 17624995832704750047
20300324 65 18342176716888539807
20510252 161 18333734645405022171
21141583 151 18273217512622274736
21421566 26 17487047023232389575
21524375 3 18196084435466174491
21623110 236 18265342887310994032
21652331 79 18335422365535386387
22959321 54 18334011683548257162
23114952 82 17344645746124556991
23557571 272 18268721669510655422
23590187 71 18411136961149125904
4028521 119 18407754841764695765
4175511 318 17775566467836539078
44154327 71 18124033421566128849
9965369 4 18334287644667700776

> <PUBCHEM_SHAPE_MULTIPOLES>
317.53
8.16
3.28
1.13
10.37
1.37
-0.19
2.53
-1.44
-1.28
0.22
-0.4
0.08
-1.13

> <PUBCHEM_SHAPE_SELFOVERLAP>
602.852

> <PUBCHEM_SHAPE_VOLUME>
196

> <PUBCHEM_COORDINATE_TYPE>
2
5
10

$$$$
