5986428
  -OEChem-11232108443D

 12 11  0     0  0  0  0  0  0999 V2000
   -2.9567    0.1376   -0.0006 O   0  0  0  0  0  0  0  0  0  0  0  0
    0.5650   -0.2781    0.0003 C   0  0  0  0  0  0  0  0  0  0  0  0
   -0.6038    0.3742    0.0006 C   0  0  0  0  0  0  0  0  0  0  0  0
    1.8387    0.4041   -0.0001 C   0  0  0  0  0  0  0  0  0  0  0  0
   -1.8579   -0.4042    0.0002 C   0  0  0  0  0  0  0  0  0  0  0  0
    3.0148   -0.2335   -0.0004 C   0  0  0  0  0  0  0  0  0  0  0  0
    0.5876   -1.3653    0.0002 H   0  0  0  0  0  0  0  0  0  0  0  0
   -0.6775    1.4556    0.0005 H   0  0  0  0  0  0  0  0  0  0  0  0
    1.8334    1.4908   -0.0002 H   0  0  0  0  0  0  0  0  0  0  0  0
   -1.7524   -1.5019    0.0003 H   0  0  0  0  0  0  0  0  0  0  0  0
    3.9419    0.3299   -0.0007 H   0  0  0  0  0  0  0  0  0  0  0  0
    3.0825   -1.3164   -0.0003 H   0  0  0  0  0  0  0  0  0  0  0  0
  1  5  2  0  0  0  0
  2  3  2  0  0  0  0
  2  4  1  0  0  0  0
  2  7  1  0  0  0  0
  3  5  1  0  0  0  0
  3  8  1  0  0  0  0
  4  6  2  0  0  0  0
  4  9  1  0  0  0  0
  5 10  1  0  0  0  0
  6 11  1  0  0  0  0
  6 12  1  0  0  0  0
M  END
> <PUBCHEM_COMPOUND_CID>
5986428

> <PUBCHEM_CONFORMER_RMSD>
0.4

> <PUBCHEM_CONFORMER_DIVERSEORDER>
1
2
5
4
3

> <PUBCHEM_MMFF94_PARTIAL_CHARGES>
12
1 -0.57
10 0.06
11 0.15
12 0.15
2 -0.15
3 -0.14
4 -0.15
5 0.5
6 -0.3
7 0.15
8 0.15
9 0.15

> <PUBCHEM_EFFECTIVE_ROTOR_COUNT>
2

> <PUBCHEM_PHARMACOPHORE_FEATURES>
2
1 1 acceptor
1 6 hydrophobe

> <PUBCHEM_HEAVY_ATOM_COUNT>
6

> <PUBCHEM_ATOM_DEF_STEREO_COUNT>
0

> <PUBCHEM_ATOM_UDEF_STEREO_COUNT>
0

> <PUBCHEM_BOND_DEF_STEREO_COUNT>
1

> <PUBCHEM_BOND_UDEF_STEREO_COUNT>
0

> <PUBCHEM_ISOTOPIC_ATOM_COUNT>
0

> <PUBCHEM_COMPONENT_COUNT>
1

> <PUBCHEM_CACTVS_TAUTO_COUNT>
1

> <PUBCHEM_CONFORMER_ID>
005B587C00000001

> <PUBCHEM_MMFF94_ENERGY>
3.9575

> <PUBCHEM_FEATURE_SELFOVERLAP>
10.148

> <PUBCHEM_SHAPE_FINGERPRINT>
14390081 3 18413385445074121705
16714656 1 18409448093934795991
29004967 10 15698286624558870046
5460574 1 9223232948707715168

> <PUBCHEM_SHAPE_MULTIPOLES>
117.61
4.58
0.71
0.6
0.1
0
0
0.2
0
-0.05
0
-0.05
0
0

> <PUBCHEM_SHAPE_SELFOVERLAP>
213.712

> <PUBCHEM_SHAPE_VOLUME>
74.7

> <PUBCHEM_COORDINATE_TYPE>
2
5
10

$$$$
