59870763
  -OEChem-11232109013D

 29 28  0     0  0  0  0  0  0999 V2000
    0.7869   -0.5524    0.2492 O   0  0  0  0  0  0  0  0  0  0  0  0
   -1.4591   -1.3821    0.5096 C   0  0  0  0  0  0  0  0  0  0  0  0
    0.0271   -1.7183    0.5408 C   0  0  0  0  0  0  0  0  0  0  0  0
   -1.8922   -0.9024   -0.8472 C   0  0  0  0  0  0  0  0  0  0  0  0
    2.1821   -0.8214    0.2677 C   0  0  0  0  0  0  0  0  0  0  0  0
   -2.6515    1.3346   -0.0077 C   0  0  0  0  0  0  0  0  0  0  0  0
   -2.4232    0.3076   -1.0768 C   0  0  0  0  0  0  0  0  0  0  0  0
    2.9412    0.4369   -0.0451 C   0  0  0  0  0  0  0  0  0  0  0  0
   -4.0313    1.1886    0.6150 C   0  0  0  0  0  0  0  0  0  0  0  0
    2.7606    1.5899    0.8997 C   0  0  0  0  0  0  0  0  0  0  0  0
    3.7594    0.5190   -1.1053 C   0  0  0  0  0  0  0  0  0  0  0  0
   -2.0307   -2.2876    0.7465 H   0  0  0  0  0  0  0  0  0  0  0  0
   -1.6770   -0.6681    1.3072 H   0  0  0  0  0  0  0  0  0  0  0  0
    0.2938   -2.0903    1.5370 H   0  0  0  0  0  0  0  0  0  0  0  0
    0.2542   -2.5008   -0.1938 H   0  0  0  0  0  0  0  0  0  0  0  0
   -1.7765   -1.5891   -1.6817 H   0  0  0  0  0  0  0  0  0  0  0  0
    2.4761   -1.1826    1.2608 H   0  0  0  0  0  0  0  0  0  0  0  0
    2.4089   -1.6098   -0.4604 H   0  0  0  0  0  0  0  0  0  0  0  0
   -1.8746    1.3223    0.7628 H   0  0  0  0  0  0  0  0  0  0  0  0
   -2.5756    2.3256   -0.4725 H   0  0  0  0  0  0  0  0  0  0  0  0
   -2.7266    0.5627   -2.0886 H   0  0  0  0  0  0  0  0  0  0  0  0
   -4.8190    1.2662   -0.1422 H   0  0  0  0  0  0  0  0  0  0  0  0
   -4.1963    1.9795    1.3538 H   0  0  0  0  0  0  0  0  0  0  0  0
   -4.1410    0.2251    1.1236 H   0  0  0  0  0  0  0  0  0  0  0  0
    1.7185    1.9252    0.9017 H   0  0  0  0  0  0  0  0  0  0  0  0
    3.3845    2.4477    0.6269 H   0  0  0  0  0  0  0  0  0  0  0  0
    3.0324    1.2922    1.9176 H   0  0  0  0  0  0  0  0  0  0  0  0
    3.8946   -0.3187   -1.7814 H   0  0  0  0  0  0  0  0  0  0  0  0
    4.3126    1.4266   -1.3229 H   0  0  0  0  0  0  0  0  0  0  0  0
  1  3  1  0  0  0  0
  1  5  1  0  0  0  0
  2  3  1  0  0  0  0
  2  4  1  0  0  0  0
  2 12  1  0  0  0  0
  2 13  1  0  0  0  0
  3 14  1  0  0  0  0
  3 15  1  0  0  0  0
  4  7  2  0  0  0  0
  4 16  1  0  0  0  0
  5  8  1  0  0  0  0
  5 17  1  0  0  0  0
  5 18  1  0  0  0  0
  6  7  1  0  0  0  0
  6  9  1  0  0  0  0
  6 19  1  0  0  0  0
  6 20  1  0  0  0  0
  7 21  1  0  0  0  0
  8 10  1  0  0  0  0
  8 11  2  0  0  0  0
  9 22  1  0  0  0  0
  9 23  1  0  0  0  0
  9 24  1  0  0  0  0
 10 25  1  0  0  0  0
 10 26  1  0  0  0  0
 10 27  1  0  0  0  0
 11 28  1  0  0  0  0
 11 29  1  0  0  0  0
M  END
> <PUBCHEM_COMPOUND_CID>
59870763

> <PUBCHEM_CONFORMER_RMSD>
0.6

> <PUBCHEM_CONFORMER_DIVERSEORDER>
1
312
6
295
136
21
274
269
128
286
157
289
85
209
111
66
219
263
99
54
277
193
245
237
11
279
25
115
299
88
203
302
133
253
95
185
15
177
7
231
10
294
202
174
92
287
162
234
252
80
192
30
137
308
292
42
34
123
298
262
238
134
41
75
208
8
272
151
51
217
239
161
297
57
247
222
50
306
122
5
195
242
226
210
86
256
291
280
190
221
145
125
63
2
173
141
270
117
18
19
106
156
140
20
296
271
267
3
166
22
309
264
17
204
255
211
268
266
212
27
158
257
261
52
197
36
139
138
250
233
207
4
216
165
300
43
104
23
180
176
179
26
244
213
49
191
58
73
172
16
249
301
259
154
169
40
187
285
108
81
65
144
24
96
59
150
91
116
178
159
199
35
186
77
67
313
224
215
241
171
12
220
119
194
131
143
260
71
246
39
254
68
305
44
155
181
89
278
293
223
235
87
153
101
243
214
28
152
113
107
282
118
126
303
90
183
78
74
102
69
167
98
100
284
160
142
182
265
304
188
281
132
198
251
258
127
164
288
170
103
229
13
112
228
83
273
55
225
79
72
47
29
109
129
310
46
120
307
62
110
232
236
105
48
175
201
61
240
275
76
147
84
14
189
163
38
200
130
218
276
124
184
148
70
121
93
53
97
230
37
32
168
31
196
56
146
64
206
311
33
94
114
205
60
135
45
9
82
248
290
227
283
149

> <PUBCHEM_MMFF94_PARTIAL_CHARGES>
14
1 -0.56
10 0.14
11 -0.3
16 0.15
2 0.14
21 0.15
28 0.15
29 0.15
3 0.28
4 -0.29
5 0.42
6 0.14
7 -0.29
8 -0.28

> <PUBCHEM_EFFECTIVE_ROTOR_COUNT>
6

> <PUBCHEM_PHARMACOPHORE_FEATURES>
2
1 1 acceptor
1 9 hydrophobe

> <PUBCHEM_HEAVY_ATOM_COUNT>
11

> <PUBCHEM_ATOM_DEF_STEREO_COUNT>
0

> <PUBCHEM_ATOM_UDEF_STEREO_COUNT>
0

> <PUBCHEM_BOND_DEF_STEREO_COUNT>
1

> <PUBCHEM_BOND_UDEF_STEREO_COUNT>
0

> <PUBCHEM_ISOTOPIC_ATOM_COUNT>
0

> <PUBCHEM_COMPONENT_COUNT>
1

> <PUBCHEM_CACTVS_TAUTO_COUNT>
1

> <PUBCHEM_CONFORMER_ID>
03918E2B00000001

> <PUBCHEM_MMFF94_ENERGY>
7.3319

> <PUBCHEM_FEATURE_SELFOVERLAP>
10.148

> <PUBCHEM_SHAPE_FINGERPRINT>
10149128 111 18261112967299226204
10857977 72 15864645942546030431
11127187 94 14189568676437138813
11615756 256 18263931118971042740
122479 349 18335706009792341561
12932764 1 18267869556836905230
13764800 53 18187654625696853787
14123255 52 18339637841888389073
14123260 362 18335710454624797349
14390081 3 18337380643036769794
15775835 57 18409731733548831941
177051 138 10737286835560104912
17834072 14 9079113319946918427
18186145 218 18342170064110857292
19107657 9 18260551125552907876
20211469 26 8142083152446943873
20304884 271 18413385440852793073
20653085 51 18131633395801995459
20671657 1 18340198570932261834
20671657 53 11959723859190141795
20711983 171 18410857672284421302
20828058 19 9079107865370185163
21524375 3 18335412435655887803
22959321 28 16298105397587735172
22959321 45 17821734939638104828
23500284 214 18334859432651129657
23557571 272 17980473791340734518
23590187 138 17677912290670470932
25 1 18411703145118027426
3086196 2 11746937594612573559
9882013 296 16081379565383294953

> <PUBCHEM_SHAPE_MULTIPOLES>
220.51
7.18
1.81
1.07
0.62
0.1
0.18
-3.95
0.55
-0.44
-0.46
0.09
-0.1
-0.12

> <PUBCHEM_SHAPE_SELFOVERLAP>
403.011

> <PUBCHEM_SHAPE_VOLUME>
141

> <PUBCHEM_COORDINATE_TYPE>
2
5
10

$$$$
