6008212
  -OEChem-11232109163D

 39 38  0     1  0  0  0  0  0999 V2000
    1.2193    1.0777   -0.0374 O   0  0  0  0  0  0  0  0  0  0  0  0
    1.2771   -0.4269   -1.7793 O   0  0  0  0  0  0  0  0  0  0  0  0
   -1.0215    0.1812    0.1598 C   0  0  0  0  0  0  0  0  0  0  0  0
   -0.1576    1.3863   -0.2407 C   0  0  1  0  0  0  0  0  0  0  0  0
   -2.5176    0.3505   -0.1338 C   0  0  0  0  0  0  0  0  0  0  0  0
   -3.2948   -0.9200    0.2232 C   0  0  0  0  0  0  0  0  0  0  0  0
   -0.5029    2.6612    0.5353 C   0  0  0  0  0  0  0  0  0  0  0  0
   -4.8005   -0.7996   -0.0218 C   0  0  0  0  0  0  0  0  0  0  0  0
    0.3825    3.8339    0.1308 C   0  0  0  0  0  0  0  0  0  0  0  0
   -5.5727   -2.0682    0.3062 C   0  0  0  0  0  0  0  0  0  0  0  0
    1.6893   -0.0153   -0.7042 C   0  0  0  0  0  0  0  0  0  0  0  0
    2.7909   -0.6485    0.0827 C   0  0  0  0  0  0  0  0  0  0  0  0
    3.6639    0.2352    0.9234 C   0  0  0  0  0  0  0  0  0  0  0  0
    2.9237   -1.9801   -0.0597 C   0  0  0  0  0  0  0  0  0  0  0  0
    3.9208   -2.8676    0.6154 C   0  0  0  0  0  0  0  0  0  0  0  0
   -0.8780   -0.0181    1.2303 H   0  0  0  0  0  0  0  0  0  0  0  0
   -0.6862   -0.7310   -0.3448 H   0  0  0  0  0  0  0  0  0  0  0  0
   -0.3047    1.5930   -1.3094 H   0  0  0  0  0  0  0  0  0  0  0  0
   -2.6612    0.5831   -1.1955 H   0  0  0  0  0  0  0  0  0  0  0  0
   -2.9248    1.1868    0.4441 H   0  0  0  0  0  0  0  0  0  0  0  0
   -3.1237   -1.1652    1.2789 H   0  0  0  0  0  0  0  0  0  0  0  0
   -2.9034   -1.7601   -0.3641 H   0  0  0  0  0  0  0  0  0  0  0  0
   -0.3707    2.4878    1.6101 H   0  0  0  0  0  0  0  0  0  0  0  0
   -1.5474    2.9433    0.3701 H   0  0  0  0  0  0  0  0  0  0  0  0
   -5.2012    0.0248    0.5799 H   0  0  0  0  0  0  0  0  0  0  0  0
   -4.9772   -0.5409   -1.0727 H   0  0  0  0  0  0  0  0  0  0  0  0
    0.2958    4.0388   -0.9410 H   0  0  0  0  0  0  0  0  0  0  0  0
    0.0821    4.7359    0.6736 H   0  0  0  0  0  0  0  0  0  0  0  0
    1.4348    3.6407    0.3617 H   0  0  0  0  0  0  0  0  0  0  0  0
   -6.6403   -1.9245    0.1132 H   0  0  0  0  0  0  0  0  0  0  0  0
   -5.4494   -2.3382    1.3598 H   0  0  0  0  0  0  0  0  0  0  0  0
   -5.2247   -2.9060   -0.3062 H   0  0  0  0  0  0  0  0  0  0  0  0
    4.6255   -0.2246    1.1649 H   0  0  0  0  0  0  0  0  0  0  0  0
    3.8910    1.1656    0.3911 H   0  0  0  0  0  0  0  0  0  0  0  0
    3.1584    0.4887    1.8607 H   0  0  0  0  0  0  0  0  0  0  0  0
    2.2373   -2.5158   -0.7138 H   0  0  0  0  0  0  0  0  0  0  0  0
    3.3995   -3.7024    1.0953 H   0  0  0  0  0  0  0  0  0  0  0  0
    4.5031   -2.3612    1.3880 H   0  0  0  0  0  0  0  0  0  0  0  0
    4.6127   -3.2797   -0.1254 H   0  0  0  0  0  0  0  0  0  0  0  0
  1  4  1  0  0  0  0
  1 11  1  0  0  0  0
  2 11  2  0  0  0  0
  3  4  1  0  0  0  0
  3  5  1  0  0  0  0
  3 16  1  0  0  0  0
  3 17  1  0  0  0  0
  4  7  1  0  0  0  0
  4 18  1  0  0  0  0
  5  6  1  0  0  0  0
  5 19  1  0  0  0  0
  5 20  1  0  0  0  0
  6  8  1  0  0  0  0
  6 21  1  0  0  0  0
  6 22  1  0  0  0  0
  7  9  1  0  0  0  0
  7 23  1  0  0  0  0
  7 24  1  0  0  0  0
  8 10  1  0  0  0  0
  8 25  1  0  0  0  0
  8 26  1  0  0  0  0
  9 27  1  0  0  0  0
  9 28  1  0  0  0  0
  9 29  1  0  0  0  0
 10 30  1  0  0  0  0
 10 31  1  0  0  0  0
 10 32  1  0  0  0  0
 11 12  1  0  0  0  0
 12 13  1  0  0  0  0
 12 14  2  0  0  0  0
 13 33  1  0  0  0  0
 13 34  1  0  0  0  0
 13 35  1  0  0  0  0
 14 15  1  0  0  0  0
 14 36  1  0  0  0  0
 15 37  1  0  0  0  0
 15 38  1  0  0  0  0
 15 39  1  0  0  0  0
M  END
> <PUBCHEM_COMPOUND_CID>
6008212

> <PUBCHEM_CONFORMER_RMSD>
0.8

> <PUBCHEM_CONFORMER_DIVERSEORDER>
1
174
334
330
21
180
263
204
406
385
98
416
152
306
271
319
309
51
413
427
170
323
445
60
376
318
268
113
258
50
79
194
162
195
420
401
28
424
231
345
40
443
449
368
209
311
272
454
253
371
256
230
349
182
234
3
143
408
248
453
297
232
142
391
178
14
352
148
224
450
276
188
305
287
288
433
189
437
4
444
238
360
220
30
384
377
374
12
273
48
394
199
211
115
38
316
411
442
171
448
243
362
290
99
405
361
289
55
57
24
455
359
430
228
348
320
35
237
16
111
325
326
118
246
295
291
367
315
214
229
303
399
337
439
89
332
265
147
191
333
5
223
9
109
342
331
117
446
25
121
175
298
126
187
294
441
249
387
329
212
141
75
346
179
43
386
340
136
447
13
151
84
101
221
282
83
90
77
364
127
328
404
260
227
166
153
393
32
37
73
207
292
186
112
19
158
42
293
235
262
436
74
156
278
128
379
203
254
425
389
283
395
419
176
18
157
266
137
435
284
54
240
252
397
185
20
304
6
432
354
372
301
39
452
383
181
381
429
81
169
402
196
160
366
2
285
261
410
122
279
46
281
33
353
438
390
47
190
26
78
193
339
139
270
97
327
310
22
351
105
106
382
365
10
216
257
31
8
59
17
219
343
116
177
61
247
149
242
317
370
95
338
184
96
423
245
114
29
380
251
205
356
218
431
49
336
82
308
421
324
434
107
236
347
94
201
192
197
76
267
403
41
398
34
299
164
173
108
64
259
119
369
392
412
313
87
378
36
200
286
138
133
341
451
88
250
222
300
27
7
363
23
417
163
280
418
58
56
206
217
440
120
103
233
322
321
71
52
414
134
110
62
208
44
144
307
375
226
396
225
296
355
154
210
277
202
388
373
159
357
241
275
213
146
80
85
53
135
132
302
344
172
415
145
124
244
312
274
409
65
86
66
15
183
407
400
239
215
125
168
63
68
45
428
93
91
255
264
167
92
70
102
155
130
11
422
358
161
335
198
69
269
165
131
72
100
426
350
314
129
140
67
104
150
123

> <PUBCHEM_MMFF94_PARTIAL_CHARGES>
9
1 -0.43
11 0.71
12 -0.12
13 0.14
14 -0.29
15 0.14
2 -0.57
36 0.15
4 0.28

> <PUBCHEM_EFFECTIVE_ROTOR_COUNT>
8

> <PUBCHEM_PHARMACOPHORE_FEATURES>
6
1 10 hydrophobe
1 13 hydrophobe
1 15 hydrophobe
1 2 acceptor
1 9 hydrophobe
4 3 5 6 8 hydrophobe

> <PUBCHEM_HEAVY_ATOM_COUNT>
15

> <PUBCHEM_ATOM_DEF_STEREO_COUNT>
0

> <PUBCHEM_ATOM_UDEF_STEREO_COUNT>
1

> <PUBCHEM_BOND_DEF_STEREO_COUNT>
1

> <PUBCHEM_BOND_UDEF_STEREO_COUNT>
0

> <PUBCHEM_ISOTOPIC_ATOM_COUNT>
0

> <PUBCHEM_COMPONENT_COUNT>
1

> <PUBCHEM_CACTVS_TAUTO_COUNT>
1

> <PUBCHEM_CONFORMER_ID>
005BAD9400000001

> <PUBCHEM_MMFF94_ENERGY>
17.7903

> <PUBCHEM_FEATURE_SELFOVERLAP>
30.45

> <PUBCHEM_SHAPE_FINGERPRINT>
11265709 11 18410579456950342265
122479 349 10807638004668251294
12500047 106 17544190477011497972
12824470 246 18114740408805525211
13533116 47 18265622172887930099
13955234 65 18052542359558070561
1420 369 18409450258725543899
14252887 29 17988372532503212887
15042514 8 18123193398803362905
15342816 4 18339938059669467031
15885798 251 18410859824268706281
20281475 54 18336271158442165541
20369508 70 18337109085535113027
20645477 70 18188769582338444131
20671657 53 18411141355312087393
20681677 274 18267011757557546234
20871998 22 18411980260671440121
21250096 35 18410009927534661707
21296965 67 18411417306597085785
21501925 9 18342175596218547609
2255824 54 18124883605778210453
23526113 38 18113621222191074905
23559900 14 18193827155553547432
257057 1 18410576149836652005
3086196 2 18195241114326423474
31174 14 17988350529765485960
314173 41 18339934812943547599
3286 77 18261955249684171399
3421961 26 18339359777094274905
54040823 5 18340495572194284594
57672749 33 18200306761685190688
633830 44 8142087546272367283
7364860 26 18195809802319774633
77188 2 18410573980915240164
7808743 9 9870874975871941606
81228 2 18054525616098812081
9841814 1 18270133416902550093

> <PUBCHEM_SHAPE_MULTIPOLES>
296.95
9.12
3.6
0.92
10.64
2.67
0.23
-10.43
-1.72
-1.31
-0.7
-0.49
-0.07
-0.04

> <PUBCHEM_SHAPE_SELFOVERLAP>
553.711

> <PUBCHEM_SHAPE_VOLUME>
186.2

> <PUBCHEM_COORDINATE_TYPE>
2
5
10

$$$$
