6017272
  -OEChem-11232109253D

 28 29  0     1  0  0  0  0  0999 V2000
    2.6820   -0.5668    0.8016 O   0  0  0  0  0  0  0  0  0  0  0  0
    2.5547    0.0066   -1.4720 O   0  0  0  0  0  0  0  0  0  0  0  0
    3.9559   -0.0965    0.3534 C   0  0  1  0  0  0  0  0  0  0  0  0
    3.6014    0.7502   -0.8446 C   0  0  0  0  0  0  0  0  0  0  0  0
    1.9073   -0.6908   -0.3981 C   0  0  2  0  0  0  0  0  0  0  0  0
    4.6631    0.6617    1.4561 C   0  0  0  0  0  0  0  0  0  0  0  0
    0.5467   -0.1283   -0.1751 C   0  0  0  0  0  0  0  0  0  0  0  0
   -0.5794   -0.8481   -0.2956 C   0  0  0  0  0  0  0  0  0  0  0  0
   -1.9436   -0.3318   -0.0937 C   0  0  0  0  0  0  0  0  0  0  0  0
   -2.1710    1.0334   -0.1659 C   0  0  0  0  0  0  0  0  0  0  0  0
   -2.9752   -1.2208    0.1650 C   0  0  0  0  0  0  0  0  0  0  0  0
   -3.4632    1.5226    0.0256 C   0  0  0  0  0  0  0  0  0  0  0  0
   -4.2674   -0.7315    0.3564 C   0  0  0  0  0  0  0  0  0  0  0  0
   -4.5113    0.6401    0.2867 C   0  0  0  0  0  0  0  0  0  0  0  0
    4.5441   -0.9715    0.0509 H   0  0  0  0  0  0  0  0  0  0  0  0
    3.1971    1.7283   -0.5607 H   0  0  0  0  0  0  0  0  0  0  0  0
    4.4361    0.8933   -1.5359 H   0  0  0  0  0  0  0  0  0  0  0  0
    1.8691   -1.7520   -0.6691 H   0  0  0  0  0  0  0  0  0  0  0  0
    4.0492    1.4933    1.8193 H   0  0  0  0  0  0  0  0  0  0  0  0
    4.8396    0.0061    2.3154 H   0  0  0  0  0  0  0  0  0  0  0  0
    5.6236    1.0568    1.1125 H   0  0  0  0  0  0  0  0  0  0  0  0
    0.5202    0.9185    0.1134 H   0  0  0  0  0  0  0  0  0  0  0  0
   -0.5081   -1.9008   -0.5603 H   0  0  0  0  0  0  0  0  0  0  0  0
   -1.3910    1.7546   -0.3885 H   0  0  0  0  0  0  0  0  0  0  0  0
   -2.8009   -2.2918    0.2238 H   0  0  0  0  0  0  0  0  0  0  0  0
   -3.6549    2.5901   -0.0337 H   0  0  0  0  0  0  0  0  0  0  0  0
   -5.0837   -1.4184    0.5599 H   0  0  0  0  0  0  0  0  0  0  0  0
   -5.5177    1.0208    0.4346 H   0  0  0  0  0  0  0  0  0  0  0  0
  1  3  1  0  0  0  0
  1  5  1  0  0  0  0
  2  4  1  0  0  0  0
  2  5  1  0  0  0  0
  3  4  1  0  0  0  0
  3  6  1  0  0  0  0
  3 15  1  0  0  0  0
  4 16  1  0  0  0  0
  4 17  1  0  0  0  0
  5  7  1  0  0  0  0
  5 18  1  0  0  0  0
  6 19  1  0  0  0  0
  6 20  1  0  0  0  0
  6 21  1  0  0  0  0
  7  8  2  0  0  0  0
  7 22  1  0  0  0  0
  8  9  1  0  0  0  0
  8 23  1  0  0  0  0
  9 10  2  0  0  0  0
  9 11  1  0  0  0  0
 10 12  1  0  0  0  0
 10 24  1  0  0  0  0
 11 13  2  0  0  0  0
 11 25  1  0  0  0  0
 12 14  2  0  0  0  0
 12 26  1  0  0  0  0
 13 14  1  0  0  0  0
 13 27  1  0  0  0  0
 14 28  1  0  0  0  0
M  END
> <PUBCHEM_COMPOUND_CID>
6017272

> <PUBCHEM_CONFORMER_RMSD>
0.6

> <PUBCHEM_CONFORMER_DIVERSEORDER>
8
3
13
9
2
7
12
11
10
1
4
6
5

> <PUBCHEM_MMFF94_PARTIAL_CHARGES>
20
1 -0.56
10 -0.15
11 -0.15
12 -0.15
13 -0.15
14 -0.15
2 -0.56
22 0.15
23 0.15
24 0.15
25 0.15
26 0.15
27 0.15
28 0.15
3 0.28
4 0.28
5 0.7
7 -0.29
8 -0.18
9 0.03

> <PUBCHEM_EFFECTIVE_ROTOR_COUNT>
3

> <PUBCHEM_PHARMACOPHORE_FEATURES>
4
1 1 acceptor
1 2 acceptor
5 1 2 3 4 5 rings
6 9 10 11 12 13 14 rings

> <PUBCHEM_HEAVY_ATOM_COUNT>
14

> <PUBCHEM_ATOM_DEF_STEREO_COUNT>
0

> <PUBCHEM_ATOM_UDEF_STEREO_COUNT>
2

> <PUBCHEM_BOND_DEF_STEREO_COUNT>
1

> <PUBCHEM_BOND_UDEF_STEREO_COUNT>
0

> <PUBCHEM_ISOTOPIC_ATOM_COUNT>
0

> <PUBCHEM_COMPONENT_COUNT>
1

> <PUBCHEM_CACTVS_TAUTO_COUNT>
1

> <PUBCHEM_CONFORMER_ID>
005BD0F800000008

> <PUBCHEM_MMFF94_ENERGY>
32.5414

> <PUBCHEM_FEATURE_SELFOVERLAP>
20.338

> <PUBCHEM_SHAPE_FINGERPRINT>
10912923 1 17531251689893830317
11132069 177 18335706018319050613
11543360 7 13470679360697776255
12251169 10 17894631452415912510
13081056 2 17989489614936999320
13214271 11 18272086102540877423
13675066 3 18409165493819318866
13897977 58 18335147509330281781
14123238 8 18060699507005717483
14455015 7 13479130160051134480
15375358 24 17846778507330655383
18186145 218 16487259863165871686
18522853 276 18409166614779428805
19050596 39 17894914039757367883
200 152 15430033275414859051
20279233 1 17775568632457656807
20432913 95 15140958448236209712
20645477 56 18060418031802225119
20645477 70 15913338961553632550
22646028 1 17095240328087333778
22854114 59 18060700602132830683
22926399 37 16415478255315694419
23048698 100 17022906761078762772
2306618 200 17313374605286978149
23402539 116 18334850645834045687
23402655 69 13542471955454111754
23557571 272 18272104785068574389
23559900 14 18341060601186457158
23590187 198 17458056049955834906
26918003 58 15719392832617522009
42 15 17095240306786505594
449060 50 17275105054408522134
474 4 16879928579922407788
5104073 3 18339930299196592803
522135 26 13973970887264736854
5281201 14 16415211039752056712
5374978 207 18113621200563244017
573450 72 17967809453366355097
633830 44 15769509650553339575

> <PUBCHEM_SHAPE_MULTIPOLES>
276.37
10.45
1.23
1.01
2.31
0.17
0.01
2.05
2.38
-1
0.03
1.26
0.1
0.28

> <PUBCHEM_SHAPE_SELFOVERLAP>
577.036

> <PUBCHEM_SHAPE_VOLUME>
157.4

> <PUBCHEM_COORDINATE_TYPE>
2
5
10

$$$$
