601946
  -OEChem-11232109103D

 25 25  0     0  0  0  0  0  0999 V2000
    0.6173    0.5512    0.6188 O   0  0  0  0  0  0  0  0  0  0  0  0
    3.7775   -0.8895   -0.2332 O   0  0  0  0  0  0  0  0  0  0  0  0
    3.1124    1.3125   -0.0406 O   0  0  0  0  0  0  0  0  0  0  0  0
   -3.3800   -0.1942   -0.2153 C   0  0  0  0  0  0  0  0  0  0  0  0
   -0.6932    0.3061    0.3448 C   0  0  0  0  0  0  0  0  0  0  0  0
   -2.8800    1.1052   -0.3006 C   0  0  0  0  0  0  0  0  0  0  0  0
   -2.5366   -1.2434    0.1501 C   0  0  0  0  0  0  0  0  0  0  0  0
   -1.5366    1.3553   -0.0207 C   0  0  0  0  0  0  0  0  0  0  0  0
   -1.1932   -0.9932    0.4302 C   0  0  0  0  0  0  0  0  0  0  0  0
   -4.8158   -0.4621   -0.5155 C   0  0  0  0  0  0  0  0  0  0  0  0
    1.5453   -0.4969    0.3437 C   0  0  0  0  0  0  0  0  0  0  0  0
    2.8809    0.1120    0.0067 C   0  0  0  0  0  0  0  0  0  0  0  0
    5.1020   -0.4631   -0.5684 C   0  0  0  0  0  0  0  0  0  0  0  0
   -3.5266    1.9308   -0.5861 H   0  0  0  0  0  0  0  0  0  0  0  0
   -2.9156   -2.2594    0.2236 H   0  0  0  0  0  0  0  0  0  0  0  0
   -1.1525    2.3694   -0.0892 H   0  0  0  0  0  0  0  0  0  0  0  0
   -0.5763   -1.8329    0.7364 H   0  0  0  0  0  0  0  0  0  0  0  0
    1.6560   -1.1217    1.2358 H   0  0  0  0  0  0  0  0  0  0  0  0
    1.2417   -1.0882   -0.5290 H   0  0  0  0  0  0  0  0  0  0  0  0
   -5.1918   -1.3054    0.0736 H   0  0  0  0  0  0  0  0  0  0  0  0
   -5.4397    0.4038   -0.2688 H   0  0  0  0  0  0  0  0  0  0  0  0
   -4.9408   -0.6928   -1.5780 H   0  0  0  0  0  0  0  0  0  0  0  0
    5.5346    0.1121    0.2559 H   0  0  0  0  0  0  0  0  0  0  0  0
    5.0876    0.1295   -1.4881 H   0  0  0  0  0  0  0  0  0  0  0  0
    5.7142   -1.3536   -0.7342 H   0  0  0  0  0  0  0  0  0  0  0  0
  1  5  1  0  0  0  0
  1 11  1  0  0  0  0
  2 12  1  0  0  0  0
  2 13  1  0  0  0  0
  3 12  2  0  0  0  0
  4  6  2  0  0  0  0
  4  7  1  0  0  0  0
  4 10  1  0  0  0  0
  5  8  2  0  0  0  0
  5  9  1  0  0  0  0
  6  8  1  0  0  0  0
  6 14  1  0  0  0  0
  7  9  2  0  0  0  0
  7 15  1  0  0  0  0
  8 16  1  0  0  0  0
  9 17  1  0  0  0  0
 10 20  1  0  0  0  0
 10 21  1  0  0  0  0
 10 22  1  0  0  0  0
 11 12  1  0  0  0  0
 11 18  1  0  0  0  0
 11 19  1  0  0  0  0
 13 23  1  0  0  0  0
 13 24  1  0  0  0  0
 13 25  1  0  0  0  0
M  END
> <PUBCHEM_COMPOUND_CID>
601946

> <PUBCHEM_CONFORMER_RMSD>
0.6

> <PUBCHEM_CONFORMER_DIVERSEORDER>
1
10
9
8
11
5
13
16
14
7
4
25
24
2
22
3
15
17
20
6
12
21
18
19
23

> <PUBCHEM_MMFF94_PARTIAL_CHARGES>
17
1 -0.36
10 0.14
11 0.34
12 0.66
13 0.28
14 0.15
15 0.15
16 0.15
17 0.15
2 -0.43
3 -0.57
4 -0.14
5 0.08
6 -0.15
7 -0.15
8 -0.15
9 -0.15

> <PUBCHEM_EFFECTIVE_ROTOR_COUNT>
4

> <PUBCHEM_PHARMACOPHORE_FEATURES>
3
1 1 acceptor
1 3 acceptor
6 4 5 6 7 8 9 rings

> <PUBCHEM_HEAVY_ATOM_COUNT>
13

> <PUBCHEM_ATOM_DEF_STEREO_COUNT>
0

> <PUBCHEM_ATOM_UDEF_STEREO_COUNT>
0

> <PUBCHEM_BOND_DEF_STEREO_COUNT>
0

> <PUBCHEM_BOND_UDEF_STEREO_COUNT>
0

> <PUBCHEM_ISOTOPIC_ATOM_COUNT>
0

> <PUBCHEM_COMPONENT_COUNT>
1

> <PUBCHEM_CACTVS_TAUTO_COUNT>
1

> <PUBCHEM_CONFORMER_ID>
00092F5A00000001

> <PUBCHEM_MMFF94_ENERGY>
33.8842

> <PUBCHEM_FEATURE_SELFOVERLAP>
15.23

> <PUBCHEM_SHAPE_FINGERPRINT>
114248 4 18410293614461344558
12032990 46 18338799022064294555
12670543 26 18337378358794417063
14911166 2 18335132107888645175
14993402 34 17675922101582864805
17870717 6 18270414810122174734
18186145 218 17822003241923679600
187816 3 18113335319382559019
1986462 14 18410857629139491396
200 152 17704070685511501458
20201158 50 18272373053020985838
20279233 1 18202006529684207806
20300324 65 18411982455462765421
20645476 183 17168142364626030115
20645477 70 18202285775842060438
20871999 31 18261667095864796229
21119208 17 18113056038701567942
21637258 2 16128358416558383287
22485316 2 17632291302449251510
23402539 116 18341608183651837133
23402655 69 18261388897478588452
23403322 49 18130509634947258382
23557571 272 18411704244540225149
23559900 14 18339356469995973568
26918003 58 13830127300009540879
42 15 11167945761951571604
58051976 100 18410291440823316798
93112 12 18408042926912339594

> <PUBCHEM_SHAPE_MULTIPOLES>
249.93
9.43
1.29
0.72
6.53
0.17
-0.01
-1.55
-2.57
-0.37
0.02
-0.01
-0.03
0.17

> <PUBCHEM_SHAPE_SELFOVERLAP>
509.269

> <PUBCHEM_SHAPE_VOLUME>
145.6

> <PUBCHEM_COORDINATE_TYPE>
2
5
10

$$$$
