60968
  -OEChem-11232109253D

 43 44  0     1  0  0  0  0  0999 V2000
   -0.8144   -0.4290   -0.7438 O   0  0  0  0  0  0  0  0  0  0  0  0
   -1.9028   -1.8608    0.7003 O   0  0  0  0  0  0  0  0  0  0  0  0
    1.6225    0.0052   -0.7948 C   0  0  1  0  0  0  0  0  0  0  0  0
    2.7157   -0.1229    0.3092 C   0  0  0  0  0  0  0  0  0  0  0  0
    1.7636    0.4812    1.3758 C   0  0  2  0  0  0  0  0  0  0  0  0
    0.4335   -0.7940   -0.1806 C   0  0  1  0  0  0  0  0  0  0  0  0
    1.2573    1.5159   -0.7422 C   0  0  0  0  0  0  0  0  0  0  0  0
    0.5144   -0.4306    1.3138 C   0  0  0  0  0  0  0  0  0  0  0  0
    1.3444    1.8349    0.7599 C   0  0  0  0  0  0  0  0  0  0  0  0
    1.9925   -0.4559   -2.1920 C   0  0  0  0  0  0  0  0  0  0  0  0
    3.1781   -1.5608    0.6208 C   0  0  0  0  0  0  0  0  0  0  0  0
    4.0007    0.6964    0.0754 C   0  0  0  0  0  0  0  0  0  0  0  0
   -1.9194   -1.0413   -0.2080 C   0  0  0  0  0  0  0  0  0  0  0  0
   -3.1605   -0.5763   -0.9396 C   0  0  0  0  0  0  0  0  0  0  0  0
   -3.8505    0.6170   -0.2606 C   0  0  0  0  0  0  0  0  0  0  0  0
   -4.2510    0.2865    1.1795 C   0  0  0  0  0  0  0  0  0  0  0  0
   -2.9242    1.8345   -0.2731 C   0  0  0  0  0  0  0  0  0  0  0  0
    2.1789    0.5750    2.3820 H   0  0  0  0  0  0  0  0  0  0  0  0
    0.5738   -1.8713   -0.3331 H   0  0  0  0  0  0  0  0  0  0  0  0
    0.2635    1.7351   -1.1449 H   0  0  0  0  0  0  0  0  0  0  0  0
    1.9673    2.1291   -1.3082 H   0  0  0  0  0  0  0  0  0  0  0  0
    0.6689   -1.3293    1.9206 H   0  0  0  0  0  0  0  0  0  0  0  0
   -0.3734    0.0807    1.7004 H   0  0  0  0  0  0  0  0  0  0  0  0
    2.0934    2.6108    0.9500 H   0  0  0  0  0  0  0  0  0  0  0  0
    0.3901    2.1987    1.1547 H   0  0  0  0  0  0  0  0  0  0  0  0
    2.8472    0.1051   -2.5837 H   0  0  0  0  0  0  0  0  0  0  0  0
    2.2562   -1.5183   -2.2039 H   0  0  0  0  0  0  0  0  0  0  0  0
    1.1561   -0.3130   -2.8846 H   0  0  0  0  0  0  0  0  0  0  0  0
    3.8206   -1.5685    1.5092 H   0  0  0  0  0  0  0  0  0  0  0  0
    2.3714   -2.2698    0.8165 H   0  0  0  0  0  0  0  0  0  0  0  0
    3.7605   -1.9683   -0.2133 H   0  0  0  0  0  0  0  0  0  0  0  0
    4.6233    0.6937    0.9776 H   0  0  0  0  0  0  0  0  0  0  0  0
    4.5926    0.2628   -0.7387 H   0  0  0  0  0  0  0  0  0  0  0  0
    3.8306    1.7430   -0.1851 H   0  0  0  0  0  0  0  0  0  0  0  0
   -2.8992   -0.3374   -1.9778 H   0  0  0  0  0  0  0  0  0  0  0  0
   -3.8461   -1.4308   -0.9950 H   0  0  0  0  0  0  0  0  0  0  0  0
   -4.7555    0.8580   -0.8311 H   0  0  0  0  0  0  0  0  0  0  0  0
   -3.3817    0.1343    1.8272 H   0  0  0  0  0  0  0  0  0  0  0  0
   -4.8382    1.1066    1.6072 H   0  0  0  0  0  0  0  0  0  0  0  0
   -4.8683   -0.6172    1.2138 H   0  0  0  0  0  0  0  0  0  0  0  0
   -2.0504    1.6969    0.3710 H   0  0  0  0  0  0  0  0  0  0  0  0
   -2.5750    2.0528   -1.2877 H   0  0  0  0  0  0  0  0  0  0  0  0
   -3.4586    2.7195    0.0897 H   0  0  0  0  0  0  0  0  0  0  0  0
  1  6  1  0  0  0  0
  1 13  1  0  0  0  0
  2 13  2  0  0  0  0
  3  4  1  0  0  0  0
  3  6  1  0  0  0  0
  3  7  1  0  0  0  0
  3 10  1  0  0  0  0
  4  5  1  0  0  0  0
  4 11  1  0  0  0  0
  4 12  1  0  0  0  0
  5  8  1  0  0  0  0
  5  9  1  0  0  0  0
  5 18  1  0  0  0  0
  6  8  1  0  0  0  0
  6 19  1  0  0  0  0
  7  9  1  0  0  0  0
  7 20  1  0  0  0  0
  7 21  1  0  0  0  0
  8 22  1  0  0  0  0
  8 23  1  0  0  0  0
  9 24  1  0  0  0  0
  9 25  1  0  0  0  0
 10 26  1  0  0  0  0
 10 27  1  0  0  0  0
 10 28  1  0  0  0  0
 11 29  1  0  0  0  0
 11 30  1  0  0  0  0
 11 31  1  0  0  0  0
 12 32  1  0  0  0  0
 12 33  1  0  0  0  0
 12 34  1  0  0  0  0
 13 14  1  0  0  0  0
 14 15  1  0  0  0  0
 14 35  1  0  0  0  0
 14 36  1  0  0  0  0
 15 16  1  0  0  0  0
 15 17  1  0  0  0  0
 15 37  1  0  0  0  0
 16 38  1  0  0  0  0
 16 39  1  0  0  0  0
 16 40  1  0  0  0  0
 17 41  1  0  0  0  0
 17 42  1  0  0  0  0
 17 43  1  0  0  0  0
M  END
> <PUBCHEM_COMPOUND_CID>
60968

> <PUBCHEM_CONFORMER_RMSD>
0.6

> <PUBCHEM_CONFORMER_DIVERSEORDER>
1
11
39
25
37
35
32
7
40
38
5
13
22
17
16
27
36
21
19
24
3
31
10
33
29
9
8
6
12
34
18
2
30
20
28
26
23
4
15
14

> <PUBCHEM_MMFF94_PARTIAL_CHARGES>
5
1 -0.43
13 0.66
14 0.06
2 -0.57
6 0.28

> <PUBCHEM_EFFECTIVE_ROTOR_COUNT>
5

> <PUBCHEM_PHARMACOPHORE_FEATURES>
4
1 2 acceptor
3 15 16 17 hydrophobe
3 4 11 12 hydrophobe
7 3 4 5 6 7 8 9 rings

> <PUBCHEM_HEAVY_ATOM_COUNT>
17

> <PUBCHEM_ATOM_DEF_STEREO_COUNT>
0

> <PUBCHEM_ATOM_UDEF_STEREO_COUNT>
3

> <PUBCHEM_BOND_DEF_STEREO_COUNT>
0

> <PUBCHEM_BOND_UDEF_STEREO_COUNT>
0

> <PUBCHEM_ISOTOPIC_ATOM_COUNT>
0

> <PUBCHEM_COMPONENT_COUNT>
1

> <PUBCHEM_CACTVS_TAUTO_COUNT>
1

> <PUBCHEM_CONFORMER_ID>
0000EE2800000001

> <PUBCHEM_MMFF94_ENERGY>
62.3448

> <PUBCHEM_FEATURE_SELFOVERLAP>
20.297

> <PUBCHEM_SHAPE_FINGERPRINT>
10922523 26 17917994966673479277
11471102 22 14345792742872014165
11615757 297 15864077559168647501
116883 192 17416138182869997444
12251169 10 18113899385805853191
124424 183 18272925012226767794
12654215 9 17132117935498647748
12670545 47 13334750041349670377
13134695 92 17988913475376609904
13571099 22 16630536106695088142
13581323 91 18187081767396396027
13675066 3 17749388148177192243
13764800 53 18260557753225411899
14004511 7 18273493451449119291
14144814 61 18260543416244769395
15163728 17 17536901101524916604
15309172 13 15140676977797001147
15775835 57 18260825982201396889
15852999 172 16558742425444350934
16945 1 17677310750583139106
17802600 8 18341322341115405373
17834072 14 15338829846304871571
1813 80 16806443596769811562
18186145 218 17988931033276548039
19422 9 17023195907056935575
200 152 12535627163524891555
20233049 118 18334852775494271960
20339313 130 16877663435460379254
20645477 70 16558762169350741686
21503847 285 16226332516831729765
21524375 3 16980388874224583648
22892500 29 15410605974219501176
23402539 116 18201425957152942949
23402655 69 15195294092620093609
23419403 2 15908530608290506262
23557571 272 17988360502769321695
23559900 14 18408603674328350874
296302 2 17703790331742781712
5337951 7 14129069114354984628
74978 22 18261951950722117263

> <PUBCHEM_SHAPE_MULTIPOLES>
338.11
7.01
1.68
1.45
4.8
0.31
0.29
0.66
-0.58
0.09
-0.11
-0.43
-0.15
0.07

> <PUBCHEM_SHAPE_SELFOVERLAP>
697.828

> <PUBCHEM_SHAPE_VOLUME>
200.3

> <PUBCHEM_COORDINATE_TYPE>
2
5
10

$$$$
