60980
  -OEChem-11232109103D

 41 41  0     0  0  0  0  0  0999 V2000
    0.6476    1.3305    0.2965 O   0  0  0  0  0  0  0  0  0  0  0  0
    2.4015    2.6482   -0.4011 O   0  0  0  0  0  0  0  0  0  0  0  0
   -3.9682    1.1986    0.4701 C   0  0  0  0  0  0  0  0  0  0  0  0
   -4.3470   -0.2508    0.1383 C   0  0  0  0  0  0  0  0  0  0  0  0
   -2.6022    1.6048   -0.0423 C   0  0  0  0  0  0  0  0  0  0  0  0
   -3.3776   -1.2473    0.7114 C   0  0  0  0  0  0  0  0  0  0  0  0
   -1.5787    2.0119    0.7335 C   0  0  0  0  0  0  0  0  0  0  0  0
   -2.4418    1.5629   -1.5406 C   0  0  0  0  0  0  0  0  0  0  0  0
   -2.7039   -2.2177    0.0654 C   0  0  0  0  0  0  0  0  0  0  0  0
   -0.2179    2.4578    0.3022 C   0  0  0  0  0  0  0  0  0  0  0  0
   -1.7754   -3.1308    0.8211 C   0  0  0  0  0  0  0  0  0  0  0  0
   -2.7743   -2.4904   -1.4101 C   0  0  0  0  0  0  0  0  0  0  0  0
    2.7325    0.3145   -0.0425 C   0  0  0  0  0  0  0  0  0  0  0  0
    1.9358    1.5669   -0.0766 C   0  0  0  0  0  0  0  0  0  0  0  0
    4.0826    0.3899    0.2317 C   0  0  0  0  0  0  0  0  0  0  0  0
    2.0976   -0.8861   -0.2863 C   0  0  0  0  0  0  0  0  0  0  0  0
    4.8310   -0.7870    0.2634 C   0  0  0  0  0  0  0  0  0  0  0  0
    2.8459   -2.0629   -0.2544 C   0  0  0  0  0  0  0  0  0  0  0  0
    4.2125   -2.0132    0.0204 C   0  0  0  0  0  0  0  0  0  0  0  0
   -4.7213    1.8725    0.0428 H   0  0  0  0  0  0  0  0  0  0  0  0
   -4.0164    1.3424    1.5576 H   0  0  0  0  0  0  0  0  0  0  0  0
   -4.4802   -0.3600   -0.9405 H   0  0  0  0  0  0  0  0  0  0  0  0
   -5.3312   -0.4544    0.5792 H   0  0  0  0  0  0  0  0  0  0  0  0
   -3.2387   -1.1635    1.7890 H   0  0  0  0  0  0  0  0  0  0  0  0
   -1.7376    2.0185    1.8110 H   0  0  0  0  0  0  0  0  0  0  0  0
   -3.1969    2.2012   -2.0121 H   0  0  0  0  0  0  0  0  0  0  0  0
   -2.5767    0.5439   -1.9143 H   0  0  0  0  0  0  0  0  0  0  0  0
   -1.4691    1.8923   -1.9090 H   0  0  0  0  0  0  0  0  0  0  0  0
    0.1502    3.1916    1.0301 H   0  0  0  0  0  0  0  0  0  0  0  0
   -0.2214    2.9501   -0.6748 H   0  0  0  0  0  0  0  0  0  0  0  0
   -0.7574   -3.0461    0.4267 H   0  0  0  0  0  0  0  0  0  0  0  0
   -1.7366   -2.8966    1.8902 H   0  0  0  0  0  0  0  0  0  0  0  0
   -2.1020   -4.1710    0.7208 H   0  0  0  0  0  0  0  0  0  0  0  0
   -3.0632   -3.5325   -1.5846 H   0  0  0  0  0  0  0  0  0  0  0  0
   -3.4943   -1.8672   -1.9427 H   0  0  0  0  0  0  0  0  0  0  0  0
   -1.7932   -2.3254   -1.8680 H   0  0  0  0  0  0  0  0  0  0  0  0
    4.5747    1.3383    0.4259 H   0  0  0  0  0  0  0  0  0  0  0  0
    1.0382   -0.9509   -0.5157 H   0  0  0  0  0  0  0  0  0  0  0  0
    5.8950   -0.7485    0.4780 H   0  0  0  0  0  0  0  0  0  0  0  0
    2.3649   -3.0177   -0.4464 H   0  0  0  0  0  0  0  0  0  0  0  0
    4.7952   -2.9295    0.0446 H   0  0  0  0  0  0  0  0  0  0  0  0
  1 10  1  0  0  0  0
  1 14  1  0  0  0  0
  2 14  2  0  0  0  0
  3  4  1  0  0  0  0
  3  5  1  0  0  0  0
  3 20  1  0  0  0  0
  3 21  1  0  0  0  0
  4  6  1  0  0  0  0
  4 22  1  0  0  0  0
  4 23  1  0  0  0  0
  5  7  2  3  0  0  0
  5  8  1  0  0  0  0
  6  9  2  0  0  0  0
  6 24  1  0  0  0  0
  7 10  1  0  0  0  0
  7 25  1  0  0  0  0
  8 26  1  0  0  0  0
  8 27  1  0  0  0  0
  8 28  1  0  0  0  0
  9 11  1  0  0  0  0
  9 12  1  0  0  0  0
 10 29  1  0  0  0  0
 10 30  1  0  0  0  0
 11 31  1  0  0  0  0
 11 32  1  0  0  0  0
 11 33  1  0  0  0  0
 12 34  1  0  0  0  0
 12 35  1  0  0  0  0
 12 36  1  0  0  0  0
 13 14  1  0  0  0  0
 13 15  2  0  0  0  0
 13 16  1  0  0  0  0
 15 17  1  0  0  0  0
 15 37  1  0  0  0  0
 16 18  2  0  0  0  0
 16 38  1  0  0  0  0
 17 19  2  0  0  0  0
 17 39  1  0  0  0  0
 18 19  1  0  0  0  0
 18 40  1  0  0  0  0
 19 41  1  0  0  0  0
M  END
> <PUBCHEM_COMPOUND_CID>
60980

> <PUBCHEM_CONFORMER_RMSD>
0.8

> <PUBCHEM_CONFORMER_DIVERSEORDER>
1
322
76
200
147
123
234
225
197
284
131
83
210
319
255
5
243
310
260
309
134
175
236
286
329
44
172
369
108
227
293
229
167
177
30
342
74
64
317
334
269
228
332
194
146
122
257
191
212
119
216
17
155
105
72
299
271
69
168
258
279
278
128
113
190
289
95
188
242
192
358
121
118
357
87
124
275
170
127
129
315
303
238
4
367
214
11
218
353
337
120
304
264
166
202
320
267
339
6
14
311
26
268
164
57
263
38
287
325
67
262
158
115
48
16
363
276
328
112
189
343
330
295
110
59
336
163
366
294
193
195
300
235
245
139
138
75
208
106
104
181
297
199
32
171
346
103
356
209
68
360
148
169
246
349
66
283
47
355
221
244
270
84
232
348
296
333
90
143
351
12
60
280
187
306
165
70
230
78
100
125
282
281
20
368
372
136
56
347
231
201
93
162
27
160
354
81
46
142
371
290
80
326
344
207
178
43
62
316
3
116
340
222
159
33
198
51
7
34
196
92
324
98
224
117
338
182
365
41
285
213
152
156
274
308
176
89
22
132
302
184
185
217
359
42
73
79
203
107
63
45
226
140
50
82
61
241
327
137
94
150
24
249
55
186
53
49
28
223
252
52
39
9
239
373
88
130
13
133
204
18
97
71
173
109
318
341
361
220
215
180
86
15
58
37
10
314
151
307
321
174
266
149
312
36
370
54
205
374
96
265
153
102
31
21
101
135
157
99
126
233
141
253
85
240
114
273
19
248
111
256
305
251
29
23
144
331
352
313
8
161
65
298
259
247
362
237
154
335
261
301
206
292
288
254
211
350
219
25
145
323
250
272
364
291
179
345
277
183
77
35
40
2
91

> <PUBCHEM_MMFF94_PARTIAL_CHARGES>
26
1 -0.43
10 0.42
11 0.14
12 0.14
13 0.09
14 0.63
15 -0.15
16 -0.15
17 -0.15
18 -0.15
19 -0.15
2 -0.57
24 0.15
25 0.15
3 0.14
37 0.15
38 0.15
39 0.15
4 0.14
40 0.15
41 0.15
5 -0.28
6 -0.29
7 -0.29
8 0.14
9 -0.28

> <PUBCHEM_EFFECTIVE_ROTOR_COUNT>
7

> <PUBCHEM_PHARMACOPHORE_FEATURES>
5
1 2 acceptor
1 8 hydrophobe
3 9 11 12 hydrophobe
4 3 4 5 6 hydrophobe
6 13 15 16 17 18 19 rings

> <PUBCHEM_HEAVY_ATOM_COUNT>
19

> <PUBCHEM_ATOM_DEF_STEREO_COUNT>
0

> <PUBCHEM_ATOM_UDEF_STEREO_COUNT>
0

> <PUBCHEM_BOND_DEF_STEREO_COUNT>
0

> <PUBCHEM_BOND_UDEF_STEREO_COUNT>
1

> <PUBCHEM_ISOTOPIC_ATOM_COUNT>
0

> <PUBCHEM_COMPONENT_COUNT>
1

> <PUBCHEM_CACTVS_TAUTO_COUNT>
1

> <PUBCHEM_CONFORMER_ID>
0000EE3400000001

> <PUBCHEM_MMFF94_ENERGY>
35.5701

> <PUBCHEM_FEATURE_SELFOVERLAP>
25.391

> <PUBCHEM_SHAPE_FINGERPRINT>
10616163 171 18340774856822063951
10759866 29 18262812885659659316
107951 10 17168428130765368225
11014199 57 17695339665893152526
12038231 1 17690002236681936403
12633257 1 18270976690818409107
13122387 1 17762057636033728603
13402501 40 18411421678910774795
13551218 46 18411427232772883315
14081887 123 18200861933599856618
14251751 93 18114739331011209971
14251757 5 18263949703405497566
14765038 42 18199207129792562264
15352361 1 18411419518346708387
15880784 105 16486679342548656612
17834074 16 18410013242911602713
17859628 97 18336267830412184731
19930381 70 18051416163156338443
20403669 9 18412831265591546959
20621476 51 18059285599598876535
21634736 98 18408611374434553272
21673915 165 18411981364741493506
221490 88 18335709389852735592
23559900 14 18412258458883860592
4283 87 18335976515138118538
5309563 4 17257661543417105843
6433294 58 18267026231054105504
6438754 60 17196264741434614031
8809292 202 18409730651153574875
9709674 26 18336831986549796051

> <PUBCHEM_SHAPE_MULTIPOLES>
379.27
9.58
3.74
0.98
4.64
0.95
0.27
3.06
-0.4
-1.46
0.03
-0.8
0.14
-0.04

> <PUBCHEM_SHAPE_SELFOVERLAP>
763.309

> <PUBCHEM_SHAPE_VOLUME>
222.8

> <PUBCHEM_COORDINATE_TYPE>
2
5
10

$$$$
