60983
  -OEChem-11232108573D

 21 20  0     0  0  0  0  0  0999 V2000
   -0.7561    1.6484   -0.0003 O   0  0  0  0  0  0  0  0  0  0  0  0
   -3.1598    0.5463   -0.0107 O   0  0  0  0  0  0  0  0  0  0  0  0
    1.7041    0.2908    0.0302 C   0  0  0  0  0  0  0  0  0  0  0  0
    2.9102   -0.6468   -0.0036 C   0  0  0  0  0  0  0  0  0  0  0  0
    0.3907   -0.4912    0.0074 C   0  0  0  0  0  0  0  0  0  0  0  0
    4.2181    0.1283   -0.0204 C   0  0  0  0  0  0  0  0  0  0  0  0
   -0.8122    0.4253    0.0016 C   0  0  0  0  0  0  0  0  0  0  0  0
   -2.1916   -0.2029   -0.0043 C   0  0  0  0  0  0  0  0  0  0  0  0
   -2.3033   -1.6981    0.0000 C   0  0  0  0  0  0  0  0  0  0  0  0
    1.7463    0.9179    0.9295 H   0  0  0  0  0  0  0  0  0  0  0  0
    1.7426    0.9707   -0.8301 H   0  0  0  0  0  0  0  0  0  0  0  0
    2.8928   -1.3071    0.8712 H   0  0  0  0  0  0  0  0  0  0  0  0
    2.8613   -1.2854   -0.8933 H   0  0  0  0  0  0  0  0  0  0  0  0
    0.3531   -1.1142   -0.8924 H   0  0  0  0  0  0  0  0  0  0  0  0
    0.3359   -1.1327    0.8932 H   0  0  0  0  0  0  0  0  0  0  0  0
    4.3135    0.7557    0.8715 H   0  0  0  0  0  0  0  0  0  0  0  0
    5.0674   -0.5618   -0.0429 H   0  0  0  0  0  0  0  0  0  0  0  0
    4.2809    0.7731   -0.9028 H   0  0  0  0  0  0  0  0  0  0  0  0
   -3.3607   -1.9792   -0.0108 H   0  0  0  0  0  0  0  0  0  0  0  0
   -1.8503   -2.1071    0.9060 H   0  0  0  0  0  0  0  0  0  0  0  0
   -1.8306   -2.1142   -0.8925 H   0  0  0  0  0  0  0  0  0  0  0  0
  1  7  2  0  0  0  0
  2  8  2  0  0  0  0
  3  4  1  0  0  0  0
  3  5  1  0  0  0  0
  3 10  1  0  0  0  0
  3 11  1  0  0  0  0
  4  6  1  0  0  0  0
  4 12  1  0  0  0  0
  4 13  1  0  0  0  0
  5  7  1  0  0  0  0
  5 14  1  0  0  0  0
  5 15  1  0  0  0  0
  6 16  1  0  0  0  0
  6 17  1  0  0  0  0
  6 18  1  0  0  0  0
  7  8  1  0  0  0  0
  8  9  1  0  0  0  0
  9 19  1  0  0  0  0
  9 20  1  0  0  0  0
  9 21  1  0  0  0  0
M  END
> <PUBCHEM_COMPOUND_CID>
60983

> <PUBCHEM_CONFORMER_RMSD>
0.6

> <PUBCHEM_CONFORMER_DIVERSEORDER>
1
26
66
62
39
3
58
4
21
65
71
10
25
53
67
9
11
68
59
74
23
42
57
73
2
69
60
8
13
70
41
63
40
34
45
24
32
44
51
12
22
64
27
35
72
18
29
5
30
31
38
36
16
7
28
46
20
54
43
17
55
61
6
56
15
33
37
19
52
49
14
47
48
50

> <PUBCHEM_MMFF94_PARTIAL_CHARGES>
6
1 -0.57
2 -0.57
5 0.06
7 0.51
8 0.51
9 0.06

> <PUBCHEM_EFFECTIVE_ROTOR_COUNT>
4

> <PUBCHEM_PHARMACOPHORE_FEATURES>
3
1 1 acceptor
1 2 acceptor
1 6 hydrophobe

> <PUBCHEM_HEAVY_ATOM_COUNT>
9

> <PUBCHEM_ATOM_DEF_STEREO_COUNT>
0

> <PUBCHEM_ATOM_UDEF_STEREO_COUNT>
0

> <PUBCHEM_BOND_DEF_STEREO_COUNT>
0

> <PUBCHEM_BOND_UDEF_STEREO_COUNT>
0

> <PUBCHEM_ISOTOPIC_ATOM_COUNT>
0

> <PUBCHEM_COMPONENT_COUNT>
1

> <PUBCHEM_CACTVS_TAUTO_COUNT>
13

> <PUBCHEM_CONFORMER_ID>
0000EE3700000001

> <PUBCHEM_MMFF94_ENERGY>
2.6184

> <PUBCHEM_FEATURE_SELFOVERLAP>
15.232

> <PUBCHEM_SHAPE_FINGERPRINT>
10857977 72 18342447188185288610
11062470 55 17530965774058098708
12897270 3 18410572877260969806
12932764 1 17458333148286874440
14325111 11 18410573981299712418
18342897 69 18410005512239456466
190213 19 13110960929363363606
20201158 50 18272933804067157182
20871998 184 18202004360588807455
23402539 116 18272925008580679765
23552423 10 18187645872337200375
75552 356 18410857676447525999

> <PUBCHEM_SHAPE_MULTIPOLES>
173.48
6.23
1.3
0.6
4.8
0.08
0
0.68
0.05
-0.9
0
0.04
0.03
0

> <PUBCHEM_SHAPE_SELFOVERLAP>
319.323

> <PUBCHEM_SHAPE_VOLUME>
109.7

> <PUBCHEM_COORDINATE_TYPE>
2
5
10

$$$$
