60995
  -OEChem-11232109463D

 26 26  0     0  0  0  0  0  0999 V2000
   -2.7594   -0.9669   -0.3959 O   0  0  0  0  0  0  0  0  0  0  0  0
   -1.8876    1.2040   -0.0087 O   0  0  0  0  0  0  0  0  0  0  0  0
   -0.5678   -0.7689    0.5828 C   0  0  0  0  0  0  0  0  0  0  0  0
   -1.5856   -0.1422   -0.3862 C   0  0  0  0  0  0  0  0  0  0  0  0
    0.8649   -0.3791    0.2965 C   0  0  0  0  0  0  0  0  0  0  0  0
    1.6187   -1.1575   -0.5656 C   0  0  0  0  0  0  0  0  0  0  0  0
    1.3940    0.7479    0.9025 C   0  0  0  0  0  0  0  0  0  0  0  0
    2.9403   -0.7982   -0.8298 C   0  0  0  0  0  0  0  0  0  0  0  0
    2.7156    1.1072    0.6384 C   0  0  0  0  0  0  0  0  0  0  0  0
    3.4889    0.3342   -0.2278 C   0  0  0  0  0  0  0  0  0  0  0  0
   -3.4011   -1.0120    0.8716 C   0  0  0  0  0  0  0  0  0  0  0  0
   -2.8207    1.8316   -0.8777 C   0  0  0  0  0  0  0  0  0  0  0  0
   -0.6386   -1.8647    0.5508 H   0  0  0  0  0  0  0  0  0  0  0  0
   -0.8010   -0.4862    1.6181 H   0  0  0  0  0  0  0  0  0  0  0  0
   -1.1848   -0.1438   -1.4070 H   0  0  0  0  0  0  0  0  0  0  0  0
    1.1993   -2.0395   -1.0409 H   0  0  0  0  0  0  0  0  0  0  0  0
    0.7994    1.3571    1.5771 H   0  0  0  0  0  0  0  0  0  0  0  0
    3.5421   -1.3997   -1.5048 H   0  0  0  0  0  0  0  0  0  0  0  0
    3.1426    1.9892    1.1067 H   0  0  0  0  0  0  0  0  0  0  0  0
    4.5178    0.6142   -0.4336 H   0  0  0  0  0  0  0  0  0  0  0  0
   -4.3724   -1.4962    0.7326 H   0  0  0  0  0  0  0  0  0  0  0  0
   -3.5821   -0.0165    1.2865 H   0  0  0  0  0  0  0  0  0  0  0  0
   -2.8345   -1.6220    1.5806 H   0  0  0  0  0  0  0  0  0  0  0  0
   -3.7961    1.3389   -0.8360 H   0  0  0  0  0  0  0  0  0  0  0  0
   -2.4446    1.8337   -1.9052 H   0  0  0  0  0  0  0  0  0  0  0  0
   -2.9460    2.8679   -0.5523 H   0  0  0  0  0  0  0  0  0  0  0  0
  1  4  1  0  0  0  0
  1 11  1  0  0  0  0
  2  4  1  0  0  0  0
  2 12  1  0  0  0  0
  3  4  1  0  0  0  0
  3  5  1  0  0  0  0
  3 13  1  0  0  0  0
  3 14  1  0  0  0  0
  4 15  1  0  0  0  0
  5  6  2  0  0  0  0
  5  7  1  0  0  0  0
  6  8  1  0  0  0  0
  6 16  1  0  0  0  0
  7  9  2  0  0  0  0
  7 17  1  0  0  0  0
  8 10  2  0  0  0  0
  8 18  1  0  0  0  0
  9 10  1  0  0  0  0
  9 19  1  0  0  0  0
 10 20  1  0  0  0  0
 11 21  1  0  0  0  0
 11 22  1  0  0  0  0
 11 23  1  0  0  0  0
 12 24  1  0  0  0  0
 12 25  1  0  0  0  0
 12 26  1  0  0  0  0
M  END
> <PUBCHEM_COMPOUND_CID>
60995

> <PUBCHEM_CONFORMER_RMSD>
0.6

> <PUBCHEM_CONFORMER_DIVERSEORDER>
2
15
1
4
12
6
8
16
11
3
10
9
14
5
7
13

> <PUBCHEM_MMFF94_PARTIAL_CHARGES>
17
1 -0.56
10 -0.15
11 0.28
12 0.28
16 0.15
17 0.15
18 0.15
19 0.15
2 -0.56
20 0.15
3 0.14
4 0.56
5 -0.14
6 -0.15
7 -0.15
8 -0.15
9 -0.15

> <PUBCHEM_EFFECTIVE_ROTOR_COUNT>
4

> <PUBCHEM_PHARMACOPHORE_FEATURES>
3
1 1 acceptor
1 2 acceptor
6 5 6 7 8 9 10 rings

> <PUBCHEM_HEAVY_ATOM_COUNT>
12

> <PUBCHEM_ATOM_DEF_STEREO_COUNT>
0

> <PUBCHEM_ATOM_UDEF_STEREO_COUNT>
0

> <PUBCHEM_BOND_DEF_STEREO_COUNT>
0

> <PUBCHEM_BOND_UDEF_STEREO_COUNT>
0

> <PUBCHEM_ISOTOPIC_ATOM_COUNT>
0

> <PUBCHEM_COMPONENT_COUNT>
1

> <PUBCHEM_CACTVS_TAUTO_COUNT>
1

> <PUBCHEM_CONFORMER_ID>
0000EE4300000002

> <PUBCHEM_MMFF94_ENERGY>
34.1921

> <PUBCHEM_FEATURE_SELFOVERLAP>
15.259

> <PUBCHEM_SHAPE_FINGERPRINT>
10608611 8 18412258441350225360
12897270 3 18273491264988888748
12932764 1 18343580750292967390
13380535 21 18190747436094664187
13380536 127 17894341177198788649
13764800 53 18114747032167516793
14325111 11 18409728456662650456
15219456 202 18343300362064055064
15775835 57 17677045737699395221
16945 1 18336538438536132210
17844478 74 18410582815904957291
18186145 218 17989492926499222326
19973954 147 18413106151877558776
20201158 50 18130223753312658694
20361792 2 14836113360446016865
20645477 70 17917711245118013558
22802520 49 18270121197383158372
23402539 116 18187635968179870406
23402655 69 18060136526813724717
23557571 272 18408893927136942597
2748010 2 18341888580417585476
305870 269 17750224825128968274
6049 1 18413111658088760345
8030462 33 17968367983682676499

> <PUBCHEM_SHAPE_MULTIPOLES>
235.22
6.17
1.54
0.99
0.97
0.45
-0.03
0.34
0.45
0.85
0.17
0.02
0.04
1.08

> <PUBCHEM_SHAPE_SELFOVERLAP>
471.14

> <PUBCHEM_SHAPE_VOLUME>
139.1

> <PUBCHEM_COORDINATE_TYPE>
2
5
10

$$$$
