61006
  -OEChem-11232109423D

 20 20  0     0  0  0  0  0  0999 V2000
    2.6797   -0.0899    1.4007 O   0  0  0  0  0  0  0  0  0  0  0  0
    0.6343    0.0290   -0.5633 C   0  0  0  0  0  0  0  0  0  0  0  0
   -2.0608   -0.0087    0.1559 C   0  0  0  0  0  0  0  0  0  0  0  0
    2.0752    0.0492   -0.9476 C   0  0  0  0  0  0  0  0  0  0  0  0
   -0.0444    1.2267   -0.3382 C   0  0  0  0  0  0  0  0  0  0  0  0
   -0.0347   -1.1876   -0.4289 C   0  0  0  0  0  0  0  0  0  0  0  0
   -1.3919    1.2078    0.0214 C   0  0  0  0  0  0  0  0  0  0  0  0
   -1.3823   -1.2064   -0.0692 C   0  0  0  0  0  0  0  0  0  0  0  0
   -3.5015   -0.0290    0.5411 C   0  0  0  0  0  0  0  0  0  0  0  0
    3.0264    0.0091    0.2282 C   0  0  0  0  0  0  0  0  0  0  0  0
    2.3117   -0.8023   -1.5964 H   0  0  0  0  0  0  0  0  0  0  0  0
    2.3017    0.9528   -1.5261 H   0  0  0  0  0  0  0  0  0  0  0  0
    0.4660    2.1810   -0.4382 H   0  0  0  0  0  0  0  0  0  0  0  0
    0.4832   -2.1276   -0.6001 H   0  0  0  0  0  0  0  0  0  0  0  0
   -1.9101    2.1476    0.1928 H   0  0  0  0  0  0  0  0  0  0  0  0
   -1.8929   -2.1606    0.0311 H   0  0  0  0  0  0  0  0  0  0  0  0
   -3.7451   -0.9315    1.1120 H   0  0  0  0  0  0  0  0  0  0  0  0
   -3.7533    0.8281    1.1749 H   0  0  0  0  0  0  0  0  0  0  0  0
   -4.1302    0.0001   -0.3543 H   0  0  0  0  0  0  0  0  0  0  0  0
    4.0964    0.0652   -0.0365 H   0  0  0  0  0  0  0  0  0  0  0  0
  1 10  2  0  0  0  0
  2  4  1  0  0  0  0
  2  5  2  0  0  0  0
  2  6  1  0  0  0  0
  3  7  2  0  0  0  0
  3  8  1  0  0  0  0
  3  9  1  0  0  0  0
  4 10  1  0  0  0  0
  4 11  1  0  0  0  0
  4 12  1  0  0  0  0
  5  7  1  0  0  0  0
  5 13  1  0  0  0  0
  6  8  2  0  0  0  0
  6 14  1  0  0  0  0
  7 15  1  0  0  0  0
  8 16  1  0  0  0  0
  9 17  1  0  0  0  0
  9 18  1  0  0  0  0
  9 19  1  0  0  0  0
 10 20  1  0  0  0  0
M  END
> <PUBCHEM_COMPOUND_CID>
61006

> <PUBCHEM_CONFORMER_RMSD>
0.4

> <PUBCHEM_CONFORMER_DIVERSEORDER>
1
4
2
6
5
3

> <PUBCHEM_MMFF94_PARTIAL_CHARGES>
15
1 -0.57
10 0.45
13 0.15
14 0.15
15 0.15
16 0.15
2 -0.14
20 0.06
3 -0.14
4 0.2
5 -0.15
6 -0.15
7 -0.15
8 -0.15
9 0.14

> <PUBCHEM_EFFECTIVE_ROTOR_COUNT>
2

> <PUBCHEM_PHARMACOPHORE_FEATURES>
2
1 1 acceptor
6 2 3 5 6 7 8 rings

> <PUBCHEM_HEAVY_ATOM_COUNT>
10

> <PUBCHEM_ATOM_DEF_STEREO_COUNT>
0

> <PUBCHEM_ATOM_UDEF_STEREO_COUNT>
0

> <PUBCHEM_BOND_DEF_STEREO_COUNT>
0

> <PUBCHEM_BOND_UDEF_STEREO_COUNT>
0

> <PUBCHEM_ISOTOPIC_ATOM_COUNT>
0

> <PUBCHEM_COMPONENT_COUNT>
1

> <PUBCHEM_CACTVS_TAUTO_COUNT>
2

> <PUBCHEM_CONFORMER_ID>
0000EE4E00000001

> <PUBCHEM_MMFF94_ENERGY>
19.9252

> <PUBCHEM_FEATURE_SELFOVERLAP>
10.148

> <PUBCHEM_SHAPE_FINGERPRINT>
10857977 72 18413672421945935065
11769659 78 16153710972265955307
12423570 1 8740063473035440615
12932764 1 17676206909216878980
15310529 11 16660648487453086645
16945 1 18411143536754456237
20645464 45 17775282764008814646
20653085 51 14261347007242924616
21040471 1 18267878197915089397
23235685 24 18341619204453288693
23552423 10 17681844229870843773
2748010 2 18050299072110752149
369184 2 18410846668467256956
5084963 1 18200328618820582964

> <PUBCHEM_SHAPE_MULTIPOLES>
199.93
4.66
1.21
0.94
0.1
0.01
0.15
-0.04
1.36
-0.4
-0.12
0.58
-0.01
-0.03

> <PUBCHEM_SHAPE_SELFOVERLAP>
409.326

> <PUBCHEM_SHAPE_VOLUME>
115.5

> <PUBCHEM_COORDINATE_TYPE>
2
5
10

$$$$
