61008
  -OEChem-11232108453D

 28 28  0     0  0  0  0  0  0999 V2000
   -4.4560   -0.6530   -0.0405 O   0  0  0  0  0  0  0  0  0  0  0  0
    3.7309    1.3167    0.2711 O   0  0  0  0  0  0  0  0  0  0  0  0
   -0.4313    0.2689    0.1048 C   0  0  0  0  0  0  0  0  0  0  0  0
    4.4466   -0.9289   -0.2567 C   0  0  0  0  0  0  0  0  0  0  0  0
   -0.8304   -1.0507    0.2406 C   0  0  0  0  0  0  0  0  0  0  0  0
   -1.3539    1.2862   -0.0788 C   0  0  0  0  0  0  0  0  0  0  0  0
    1.0039    0.5986    0.1569 C   0  0  0  0  0  0  0  0  0  0  0  0
   -3.1304   -0.3489    0.0071 C   0  0  0  0  0  0  0  0  0  0  0  0
   -2.1891   -1.3618    0.1913 C   0  0  0  0  0  0  0  0  0  0  0  0
   -2.7128    0.9752   -0.1280 C   0  0  0  0  0  0  0  0  0  0  0  0
    3.4205    0.1567    0.0135 C   0  0  0  0  0  0  0  0  0  0  0  0
    1.9941   -0.2801   -0.0529 C   0  0  0  0  0  0  0  0  0  0  0  0
    5.8726   -0.4093   -0.1971 C   0  0  0  0  0  0  0  0  0  0  0  0
   -5.3646    0.4306   -0.2313 C   0  0  0  0  0  0  0  0  0  0  0  0
    4.3183   -1.7205    0.4895 H   0  0  0  0  0  0  0  0  0  0  0  0
    4.2563   -1.3469   -1.2513 H   0  0  0  0  0  0  0  0  0  0  0  0
   -0.1357   -1.8677    0.4072 H   0  0  0  0  0  0  0  0  0  0  0  0
   -1.0430    2.3220   -0.1870 H   0  0  0  0  0  0  0  0  0  0  0  0
    1.2338    1.6393    0.3735 H   0  0  0  0  0  0  0  0  0  0  0  0
   -2.5095   -2.3943    0.3018 H   0  0  0  0  0  0  0  0  0  0  0  0
   -3.3898    1.8100   -0.2739 H   0  0  0  0  0  0  0  0  0  0  0  0
    1.8294   -1.3225   -0.2982 H   0  0  0  0  0  0  0  0  0  0  0  0
    6.0347    0.3805   -0.9381 H   0  0  0  0  0  0  0  0  0  0  0  0
    6.0990    0.0060    0.7906 H   0  0  0  0  0  0  0  0  0  0  0  0
    6.5816   -1.2182   -0.3985 H   0  0  0  0  0  0  0  0  0  0  0  0
   -5.3258    1.1398    0.6025 H   0  0  0  0  0  0  0  0  0  0  0  0
   -6.3744    0.0073   -0.2440 H   0  0  0  0  0  0  0  0  0  0  0  0
   -5.2105    0.9191   -1.1993 H   0  0  0  0  0  0  0  0  0  0  0  0
  1  8  1  0  0  0  0
  1 14  1  0  0  0  0
  2 11  2  0  0  0  0
  3  5  2  0  0  0  0
  3  6  1  0  0  0  0
  3  7  1  0  0  0  0
  4 11  1  0  0  0  0
  4 13  1  0  0  0  0
  4 15  1  0  0  0  0
  4 16  1  0  0  0  0
  5  9  1  0  0  0  0
  5 17  1  0  0  0  0
  6 10  2  0  0  0  0
  6 18  1  0  0  0  0
  7 12  2  3  0  0  0
  7 19  1  0  0  0  0
  8  9  2  0  0  0  0
  8 10  1  0  0  0  0
  9 20  1  0  0  0  0
 10 21  1  0  0  0  0
 11 12  1  0  0  0  0
 12 22  1  0  0  0  0
 13 23  1  0  0  0  0
 13 24  1  0  0  0  0
 13 25  1  0  0  0  0
 14 26  1  0  0  0  0
 14 27  1  0  0  0  0
 14 28  1  0  0  0  0
M  END
> <PUBCHEM_COMPOUND_CID>
61008

> <PUBCHEM_CONFORMER_RMSD>
0.6

> <PUBCHEM_CONFORMER_DIVERSEORDER>
1
6
4
10
12
8
11
7
13
5
3
9
2

> <PUBCHEM_MMFF94_PARTIAL_CHARGES>
19
1 -0.36
10 -0.15
11 0.49
12 -0.14
14 0.28
17 0.15
18 0.15
19 0.15
2 -0.57
20 0.15
21 0.15
22 0.15
3 0.03
4 0.06
5 -0.15
6 -0.15
7 -0.18
8 0.08
9 -0.15

> <PUBCHEM_EFFECTIVE_ROTOR_COUNT>
4

> <PUBCHEM_PHARMACOPHORE_FEATURES>
4
1 1 acceptor
1 13 hydrophobe
1 2 acceptor
6 3 5 6 8 9 10 rings

> <PUBCHEM_HEAVY_ATOM_COUNT>
14

> <PUBCHEM_ATOM_DEF_STEREO_COUNT>
0

> <PUBCHEM_ATOM_UDEF_STEREO_COUNT>
0

> <PUBCHEM_BOND_DEF_STEREO_COUNT>
0

> <PUBCHEM_BOND_UDEF_STEREO_COUNT>
1

> <PUBCHEM_ISOTOPIC_ATOM_COUNT>
0

> <PUBCHEM_COMPONENT_COUNT>
1

> <PUBCHEM_CACTVS_TAUTO_COUNT>
2

> <PUBCHEM_CONFORMER_ID>
0000EE5000000001

> <PUBCHEM_MMFF94_ENERGY>
40.5167

> <PUBCHEM_FEATURE_SELFOVERLAP>
20.297

> <PUBCHEM_SHAPE_FINGERPRINT>
10968037 39 18407762551420948110
11315181 36 18343588447443846944
11401426 45 18411696600041302133
12236239 1 17313105250301670838
12815109 37 18342458140705444526
13288520 33 18412546496163722269
13533116 47 13901916557755440958
13690532 89 18408604759852504077
14115302 16 18040724700628101246
14123238 8 18202283598077012382
14911166 2 18408317796482517741
15048467 5 13190333553092075847
15196674 1 18338516446948098057
15242439 84 18409167714354087298
17834072 8 18333729108959633719
17834076 25 15574715789599033953
18186145 218 16878218774826567332
187816 3 17675925400138931641
200 152 17561081393042200683
20279233 1 18059864964858851814
20645477 70 18130229259946503358
21119208 17 17894912936124852582
21267235 1 18409175410698267338
22485316 2 18201435917181998342
2297311 6 18342749489959720380
23402539 116 18272364274577052205
23557571 272 18335423417866152156
23559900 14 18411696634332761232
26918003 58 17346599681482159562
3004659 81 18187931617609181758
366044 4 18407759231448482835
4214541 1 18411138004879069096
42788 4 18410855464423135597
5104073 3 18410856606974147056
5374978 207 18413100680563847816
542803 24 15357698582755545942
58051976 100 18410574015517338086
69090 78 18343862233922929311
77779 3 18410576197634660480

> <PUBCHEM_SHAPE_MULTIPOLES>
276.37
11.67
1.27
0.63
6.61
0.02
0
-0.91
-1.16
-0.24
0.05
0.03
-0.01
0.3

> <PUBCHEM_SHAPE_SELFOVERLAP>
563.996

> <PUBCHEM_SHAPE_VOLUME>
161.1

> <PUBCHEM_COORDINATE_TYPE>
2
5
10

$$$$
