61000
  -OEChem-11232108473D

 44 44  0     0  0  0  0  0  0999 V2000
   -0.0178    0.9216    0.4425 O   0  0  0  0  0  0  0  0  0  0  0  0
    1.9520    1.9475   -0.1803 O   0  0  0  0  0  0  0  0  0  0  0  0
   -4.6047    1.4248    0.1981 C   0  0  0  0  0  0  0  0  0  0  0  0
   -5.1552    0.0176   -0.0688 C   0  0  0  0  0  0  0  0  0  0  0  0
   -3.1578    1.6019   -0.2123 C   0  0  0  0  0  0  0  0  0  0  0  0
   -4.3859   -1.0513    0.6570 C   0  0  0  0  0  0  0  0  0  0  0  0
   -2.1544    1.9282    0.6255 C   0  0  0  0  0  0  0  0  0  0  0  0
   -2.8825    1.4199   -1.6831 C   0  0  0  0  0  0  0  0  0  0  0  0
   -3.8048   -2.1516    0.1427 C   0  0  0  0  0  0  0  0  0  0  0  0
   -0.7136    2.1517    0.2924 C   0  0  0  0  0  0  0  0  0  0  0  0
    1.9094   -0.4205    0.3772 C   0  0  0  0  0  0  0  0  0  0  0  0
    3.3964   -0.4709    0.1378 C   0  0  0  0  0  0  0  0  0  0  0  0
   -3.0792   -3.1181    1.0406 C   0  0  0  0  0  0  0  0  0  0  0  0
   -3.7915   -2.5287   -1.3112 C   0  0  0  0  0  0  0  0  0  0  0  0
    1.3258    0.9571    0.1720 C   0  0  0  0  0  0  0  0  0  0  0  0
    3.8731   -0.7495   -1.1349 C   0  0  0  0  0  0  0  0  0  0  0  0
    4.2656   -0.2373    1.1935 C   0  0  0  0  0  0  0  0  0  0  0  0
    5.2495   -0.7960   -1.3566 C   0  0  0  0  0  0  0  0  0  0  0  0
    5.6419   -0.2835    0.9715 C   0  0  0  0  0  0  0  0  0  0  0  0
    6.1338   -0.5629   -0.3036 C   0  0  0  0  0  0  0  0  0  0  0  0
   -5.2179    2.1576   -0.3412 H   0  0  0  0  0  0  0  0  0  0  0  0
   -4.7213    1.6596    1.2644 H   0  0  0  0  0  0  0  0  0  0  0  0
   -6.1911   -0.0164    0.2921 H   0  0  0  0  0  0  0  0  0  0  0  0
   -5.2135   -0.1579   -1.1454 H   0  0  0  0  0  0  0  0  0  0  0  0
   -4.3256   -0.9016    1.7347 H   0  0  0  0  0  0  0  0  0  0  0  0
   -2.3987    2.0417    1.6807 H   0  0  0  0  0  0  0  0  0  0  0  0
   -3.4993    2.1141   -2.2641 H   0  0  0  0  0  0  0  0  0  0  0  0
   -3.1280    0.4018   -1.9982 H   0  0  0  0  0  0  0  0  0  0  0  0
   -1.8463    1.5862   -1.9817 H   0  0  0  0  0  0  0  0  0  0  0  0
   -0.3070    2.8848    1.0003 H   0  0  0  0  0  0  0  0  0  0  0  0
   -0.5677    2.5609   -0.7116 H   0  0  0  0  0  0  0  0  0  0  0  0
    1.4026   -1.1178   -0.3009 H   0  0  0  0  0  0  0  0  0  0  0  0
    1.6918   -0.7427    1.4027 H   0  0  0  0  0  0  0  0  0  0  0  0
   -2.0296   -3.1997    0.7391 H   0  0  0  0  0  0  0  0  0  0  0  0
   -3.5375   -4.1106    0.9784 H   0  0  0  0  0  0  0  0  0  0  0  0
   -3.0988   -2.8089    2.0910 H   0  0  0  0  0  0  0  0  0  0  0  0
   -2.7628   -2.5342   -1.6869 H   0  0  0  0  0  0  0  0  0  0  0  0
   -4.3703   -1.8587   -1.9487 H   0  0  0  0  0  0  0  0  0  0  0  0
   -4.2092   -3.5329   -1.4411 H   0  0  0  0  0  0  0  0  0  0  0  0
    3.1927   -0.9303   -1.9622 H   0  0  0  0  0  0  0  0  0  0  0  0
    3.8926   -0.0167    2.1895 H   0  0  0  0  0  0  0  0  0  0  0  0
    5.6326   -1.0128   -2.3495 H   0  0  0  0  0  0  0  0  0  0  0  0
    6.3307   -0.1014    1.7913 H   0  0  0  0  0  0  0  0  0  0  0  0
    7.2054   -0.5987   -0.4763 H   0  0  0  0  0  0  0  0  0  0  0  0
  1 10  1  0  0  0  0
  1 15  1  0  0  0  0
  2 15  2  0  0  0  0
  3  4  1  0  0  0  0
  3  5  1  0  0  0  0
  3 21  1  0  0  0  0
  3 22  1  0  0  0  0
  4  6  1  0  0  0  0
  4 23  1  0  0  0  0
  4 24  1  0  0  0  0
  5  7  2  3  0  0  0
  5  8  1  0  0  0  0
  6  9  2  0  0  0  0
  6 25  1  0  0  0  0
  7 10  1  0  0  0  0
  7 26  1  0  0  0  0
  8 27  1  0  0  0  0
  8 28  1  0  0  0  0
  8 29  1  0  0  0  0
  9 13  1  0  0  0  0
  9 14  1  0  0  0  0
 10 30  1  0  0  0  0
 10 31  1  0  0  0  0
 11 12  1  0  0  0  0
 11 15  1  0  0  0  0
 11 32  1  0  0  0  0
 11 33  1  0  0  0  0
 12 16  2  0  0  0  0
 12 17  1  0  0  0  0
 13 34  1  0  0  0  0
 13 35  1  0  0  0  0
 13 36  1  0  0  0  0
 14 37  1  0  0  0  0
 14 38  1  0  0  0  0
 14 39  1  0  0  0  0
 16 18  1  0  0  0  0
 16 40  1  0  0  0  0
 17 19  2  0  0  0  0
 17 41  1  0  0  0  0
 18 20  2  0  0  0  0
 18 42  1  0  0  0  0
 19 20  1  0  0  0  0
 19 43  1  0  0  0  0
 20 44  1  0  0  0  0
M  END
> <PUBCHEM_COMPOUND_CID>
61000

> <PUBCHEM_CONFORMER_RMSD>
1

> <PUBCHEM_CONFORMER_DIVERSEORDER>
1
38
67
11
47
71
66
166
220
17
57
129
149
96
139
176
181
27
204
45
223
6
214
169
221
130
41
198
24
128
212
168
118
158
9
7
93
25
161
72
196
135
132
55
207
59
88
13
228
2
53
70
10
117
105
64
202
155
115
65
156
178
49
106
42
185
43
29
213
19
111
60
46
82
90
143
138
95
54
108
52
21
205
154
136
219
39
69
37
79
3
102
226
206
125
48
211
33
180
201
32
34
68
99
58
146
215
101
131
183
62
190
86
35
126
210
188
177
127
16
81
92
91
162
164
85
133
94
140
75
112
224
124
26
119
5
50
171
84
14
153
141
113
163
147
30
4
104
63
56
107
218
103
157
8
44
209
20
116
193
61
74
152
186
222
18
150
187
167
40
217
142
120
123
15
195
145
73
23
184
28
98
197
22
121
36
97
76
51
227
87
203
134
182
12
170
151
173
159
208
179
109
192
200
189
110
160
122
216
77
31
199
114
80
78
137
144
172
83
100
165
175
174
148
191
194
225
89

> <PUBCHEM_MMFF94_PARTIAL_CHARGES>
27
1 -0.43
10 0.42
11 0.2
12 -0.14
13 0.14
14 0.14
15 0.66
16 -0.15
17 -0.15
18 -0.15
19 -0.15
2 -0.57
20 -0.15
25 0.15
26 0.15
3 0.14
4 0.14
40 0.15
41 0.15
42 0.15
43 0.15
44 0.15
5 -0.28
6 -0.29
7 -0.29
8 0.14
9 -0.28

> <PUBCHEM_EFFECTIVE_ROTOR_COUNT>
8

> <PUBCHEM_PHARMACOPHORE_FEATURES>
5
1 2 acceptor
1 8 hydrophobe
3 9 13 14 hydrophobe
4 3 4 5 6 hydrophobe
6 12 16 17 18 19 20 rings

> <PUBCHEM_HEAVY_ATOM_COUNT>
20

> <PUBCHEM_ATOM_DEF_STEREO_COUNT>
0

> <PUBCHEM_ATOM_UDEF_STEREO_COUNT>
0

> <PUBCHEM_BOND_DEF_STEREO_COUNT>
0

> <PUBCHEM_BOND_UDEF_STEREO_COUNT>
1

> <PUBCHEM_ISOTOPIC_ATOM_COUNT>
0

> <PUBCHEM_COMPONENT_COUNT>
1

> <PUBCHEM_CACTVS_TAUTO_COUNT>
1

> <PUBCHEM_CONFORMER_ID>
0000EE4800000001

> <PUBCHEM_MMFF94_ENERGY>
30.7151

> <PUBCHEM_FEATURE_SELFOVERLAP>
25.391

> <PUBCHEM_SHAPE_FINGERPRINT>
10803635 8 17968087587096133093
11045977 3 18131625677682753849
11056379 131 18267028245505219060
11135609 149 14925324350244036986
12616971 3 17458071438918614748
12633257 1 18200890555847420705
12821665 9 18043826479181656188
12990986 174 18265334087244595619
13402501 40 18343867710370390983
13911882 115 17775293729334771382
1420 363 18131350774348656592
14251740 79 18410296904438182699
14251751 18 18411138064850108888
14251757 5 18261118507886711651
14461889 52 18272642464447211162
14617045 38 18336270059484536379
14931854 50 18260536815271049439
15537594 2 18186525371657982091
15880784 105 16415467268826235293
17844677 252 16487254331680907856
20621476 21 17917160429022041086
20621476 51 17701249468194067511
21054139 6 18113900455675060618
21623969 137 17132117931435951958
221490 88 18338802337214856488
23402539 116 16298386816788198276
23428019 142 17676488392805357995
23466295 7 17970360411059881299
23559900 14 18339635737170070945
25122255 55 18131080298799067606
3246875 12 18196930188185110752
3383291 50 18341330081084881515
4073 2 18201722808676724984
445580 160 18271534113286525646
574716 61 17023761141906663319
57583515 52 18335138709153223795
7062679 117 18409732850403787736
9862886 166 18409729569159458962

> <PUBCHEM_SHAPE_MULTIPOLES>
399.85
14.95
2.82
1.26
12.64
1.13
0.34
5.3
0.75
-4.91
-0.11
0.31
0.3
0.6

> <PUBCHEM_SHAPE_SELFOVERLAP>
799.434

> <PUBCHEM_SHAPE_VOLUME>
235.8

> <PUBCHEM_COORDINATE_TYPE>
2
5
10

$$$$
