61003
  -OEChem-11232109143D

 31 31  0     0  0  0  0  0  0999 V2000
   -3.3551    1.5044    0.4649 O   0  0  0  0  0  0  0  0  0  0  0  0
    4.7424   -0.7324   -0.1433 O   0  0  0  0  0  0  0  0  0  0  0  0
   -4.1833   -0.6004   -0.3902 C   0  0  0  0  0  0  0  0  0  0  0  0
   -3.0953    0.3851    0.0285 C   0  0  0  0  0  0  0  0  0  0  0  0
   -4.5910   -1.4560    0.8047 C   0  0  0  0  0  0  0  0  0  0  0  0
   -5.3908    0.1341   -0.9684 C   0  0  0  0  0  0  0  0  0  0  0  0
   -1.6867   -0.0962   -0.1016 C   0  0  0  0  0  0  0  0  0  0  0  0
    0.7579    0.3241    0.1341 C   0  0  0  0  0  0  0  0  0  0  0  0
   -0.6630    0.7018    0.2326 C   0  0  0  0  0  0  0  0  0  0  0  0
    1.1020   -1.0166    0.0789 C   0  0  0  0  0  0  0  0  0  0  0  0
    1.7222    1.3183    0.0982 C   0  0  0  0  0  0  0  0  0  0  0  0
    3.4301   -0.3840   -0.0517 C   0  0  0  0  0  0  0  0  0  0  0  0
    2.4473   -1.3731   -0.0145 C   0  0  0  0  0  0  0  0  0  0  0  0
    3.0676    0.9619    0.0047 C   0  0  0  0  0  0  0  0  0  0  0  0
    5.6956    0.3289   -0.1769 C   0  0  0  0  0  0  0  0  0  0  0  0
   -3.7825   -1.2486   -1.1791 H   0  0  0  0  0  0  0  0  0  0  0  0
   -5.3588   -2.1832    0.5214 H   0  0  0  0  0  0  0  0  0  0  0  0
   -3.7324   -2.0085    1.2013 H   0  0  0  0  0  0  0  0  0  0  0  0
   -4.9875   -0.8387    1.6186 H   0  0  0  0  0  0  0  0  0  0  0  0
   -5.8671    0.7766   -0.2197 H   0  0  0  0  0  0  0  0  0  0  0  0
   -5.0915    0.7708   -1.8081 H   0  0  0  0  0  0  0  0  0  0  0  0
   -6.1408   -0.5763   -1.3314 H   0  0  0  0  0  0  0  0  0  0  0  0
   -1.5597   -1.0986   -0.4922 H   0  0  0  0  0  0  0  0  0  0  0  0
   -0.8515    1.7094    0.5961 H   0  0  0  0  0  0  0  0  0  0  0  0
    0.3738   -1.8199    0.1267 H   0  0  0  0  0  0  0  0  0  0  0  0
    1.4544    2.3708    0.1399 H   0  0  0  0  0  0  0  0  0  0  0  0
    2.7246   -2.4231   -0.0534 H   0  0  0  0  0  0  0  0  0  0  0  0
    3.7790    1.7803   -0.0201 H   0  0  0  0  0  0  0  0  0  0  0  0
    6.6872   -0.1295   -0.2509 H   0  0  0  0  0  0  0  0  0  0  0  0
    5.6813    0.9122    0.7501 H   0  0  0  0  0  0  0  0  0  0  0  0
    5.5668    0.9574   -1.0646 H   0  0  0  0  0  0  0  0  0  0  0  0
  1  4  2  0  0  0  0
  2 12  1  0  0  0  0
  2 15  1  0  0  0  0
  3  4  1  0  0  0  0
  3  5  1  0  0  0  0
  3  6  1  0  0  0  0
  3 16  1  0  0  0  0
  4  7  1  0  0  0  0
  5 17  1  0  0  0  0
  5 18  1  0  0  0  0
  5 19  1  0  0  0  0
  6 20  1  0  0  0  0
  6 21  1  0  0  0  0
  6 22  1  0  0  0  0
  7  9  2  3  0  0  0
  7 23  1  0  0  0  0
  8  9  1  0  0  0  0
  8 10  2  0  0  0  0
  8 11  1  0  0  0  0
  9 24  1  0  0  0  0
 10 13  1  0  0  0  0
 10 25  1  0  0  0  0
 11 14  2  0  0  0  0
 11 26  1  0  0  0  0
 12 13  2  0  0  0  0
 12 14  1  0  0  0  0
 13 27  1  0  0  0  0
 14 28  1  0  0  0  0
 15 29  1  0  0  0  0
 15 30  1  0  0  0  0
 15 31  1  0  0  0  0
M  END
> <PUBCHEM_COMPOUND_CID>
61003

> <PUBCHEM_CONFORMER_RMSD>
0.6

> <PUBCHEM_CONFORMER_DIVERSEORDER>
1
14
8
13
6
2
9
3
15
11
5
4
10
12
16
7

> <PUBCHEM_MMFF94_PARTIAL_CHARGES>
19
1 -0.57
10 -0.15
11 -0.15
12 0.08
13 -0.15
14 -0.15
15 0.28
2 -0.36
23 0.15
24 0.15
25 0.15
26 0.15
27 0.15
28 0.15
3 0.06
4 0.49
7 -0.14
8 0.03
9 -0.18

> <PUBCHEM_EFFECTIVE_ROTOR_COUNT>
4

> <PUBCHEM_PHARMACOPHORE_FEATURES>
4
1 1 acceptor
1 2 acceptor
3 3 5 6 hydrophobe
6 8 10 11 12 13 14 rings

> <PUBCHEM_HEAVY_ATOM_COUNT>
15

> <PUBCHEM_ATOM_DEF_STEREO_COUNT>
0

> <PUBCHEM_ATOM_UDEF_STEREO_COUNT>
0

> <PUBCHEM_BOND_DEF_STEREO_COUNT>
0

> <PUBCHEM_BOND_UDEF_STEREO_COUNT>
1

> <PUBCHEM_ISOTOPIC_ATOM_COUNT>
0

> <PUBCHEM_COMPONENT_COUNT>
1

> <PUBCHEM_CACTVS_TAUTO_COUNT>
2

> <PUBCHEM_CONFORMER_ID>
0000EE4B00000001

> <PUBCHEM_MMFF94_ENERGY>
45.1528

> <PUBCHEM_FEATURE_SELFOVERLAP>
20.297

> <PUBCHEM_SHAPE_FINGERPRINT>
11287383 113 18040437732572802604
11471102 20 18409728469732292132
11806522 49 18411420600921137960
12236239 1 17847061077529320748
13862211 1 18412540994917595726
14123238 8 18059856168660113452
1420 363 18411705399801823490
14251718 22 17894632582013351790
14252887 29 17489314061995800158
14576447 43 18342450452392341878
15196674 1 18340488868040479378
15242439 84 18259980479434680437
17834072 33 18343863342235319372
17834076 25 14056716842494853037
18186145 218 17894907430256477449
200 152 18201997729443690457
20279233 1 17168148922840143683
20645477 70 18339074891592174039
21267235 1 18341902899854374639
221490 88 18191874628491439347
22485316 2 17895189987470040107
22646028 1 17989203759383667197
23402539 116 16298102094510120207
23402655 69 18410007711173002229
23557571 272 18187643562077760677
23559900 14 18337383941756510089
26918003 58 18409728474111597083
2871803 45 18334572417156122391
29717793 49 17917711283973075205
3545911 37 18334294262880117597
4214541 1 18411419484345964857
42788 4 18411981356156807540
474229 33 18411138047908025750
4990 188 18059583468686645740
5104073 3 18342175518782413266
542803 24 14345791639350242815
77779 3 18411420600857899393

> <PUBCHEM_SHAPE_MULTIPOLES>
296.95
12.32
1.37
0.74
1.68
0.07
-0.02
1.38
-1.51
0.16
0.17
0.6
0.03
0.29

> <PUBCHEM_SHAPE_SELFOVERLAP>
605.267

> <PUBCHEM_SHAPE_VOLUME>
173.9

> <PUBCHEM_COORDINATE_TYPE>
2
5
10

$$$$
