61010
  -OEChem-11232108463D

 24 24  0     0  0  0  0  0  0999 V2000
    3.3054   -0.0304    0.8467 O   0  0  0  0  0  0  0  0  0  0  0  0
    5.1494    0.0457   -0.5512 O   0  0  0  0  0  0  0  0  0  0  0  0
   -0.0207   -0.0183   -0.9238 C   0  0  0  0  0  0  0  0  0  0  0  0
    0.9918   -0.0347    0.2281 C   0  0  0  0  0  0  0  0  0  0  0  0
   -1.4303   -0.0054   -0.4366 C   0  0  0  0  0  0  0  0  0  0  0  0
    2.4292    0.0020   -0.2715 C   0  0  0  0  0  0  0  0  0  0  0  0
   -2.1023   -1.2074   -0.2142 C   0  0  0  0  0  0  0  0  0  0  0  0
   -2.0765    1.2085   -0.2029 C   0  0  0  0  0  0  0  0  0  0  0  0
   -3.4205   -1.1955    0.2416 C   0  0  0  0  0  0  0  0  0  0  0  0
   -3.3948    1.2203    0.2530 C   0  0  0  0  0  0  0  0  0  0  0  0
   -4.0667    0.0182    0.4753 C   0  0  0  0  0  0  0  0  0  0  0  0
    4.6360   -0.0031    0.5556 C   0  0  0  0  0  0  0  0  0  0  0  0
    0.1563    0.8579   -1.5610 H   0  0  0  0  0  0  0  0  0  0  0  0
    0.1405   -0.8897   -1.5717 H   0  0  0  0  0  0  0  0  0  0  0  0
    0.8459   -0.9271    0.8506 H   0  0  0  0  0  0  0  0  0  0  0  0
    0.8224    0.8183    0.8983 H   0  0  0  0  0  0  0  0  0  0  0  0
    2.6245   -0.8652   -0.9134 H   0  0  0  0  0  0  0  0  0  0  0  0
    2.6029    0.9196   -0.8459 H   0  0  0  0  0  0  0  0  0  0  0  0
   -1.6092   -2.1598   -0.3906 H   0  0  0  0  0  0  0  0  0  0  0  0
   -1.5634    2.1518   -0.3703 H   0  0  0  0  0  0  0  0  0  0  0  0
   -3.9436   -2.1313    0.4153 H   0  0  0  0  0  0  0  0  0  0  0  0
   -3.8980    2.1653    0.4355 H   0  0  0  0  0  0  0  0  0  0  0  0
   -5.0930    0.0275    0.8305 H   0  0  0  0  0  0  0  0  0  0  0  0
    5.2009   -0.0327    1.4999 H   0  0  0  0  0  0  0  0  0  0  0  0
  1  6  1  0  0  0  0
  1 12  1  0  0  0  0
  2 12  2  0  0  0  0
  3  4  1  0  0  0  0
  3  5  1  0  0  0  0
  3 13  1  0  0  0  0
  3 14  1  0  0  0  0
  4  6  1  0  0  0  0
  4 15  1  0  0  0  0
  4 16  1  0  0  0  0
  5  7  2  0  0  0  0
  5  8  1  0  0  0  0
  6 17  1  0  0  0  0
  6 18  1  0  0  0  0
  7  9  1  0  0  0  0
  7 19  1  0  0  0  0
  8 10  2  0  0  0  0
  8 20  1  0  0  0  0
  9 11  2  0  0  0  0
  9 21  1  0  0  0  0
 10 11  1  0  0  0  0
 10 22  1  0  0  0  0
 11 23  1  0  0  0  0
 12 24  1  0  0  0  0
M  END
> <PUBCHEM_COMPOUND_CID>
61010

> <PUBCHEM_CONFORMER_RMSD>
0.6

> <PUBCHEM_CONFORMER_DIVERSEORDER>
1
38
32
28
33
39
20
6
42
45
40
26
29
34
41
46
17
30
3
43
25
47
8
49
27
9
2
10
48
18
14
4
13
24
16
5
21
44
23
19
12
22
15
11
7
36
35
37
31

> <PUBCHEM_MMFF94_PARTIAL_CHARGES>
17
1 -0.43
10 -0.15
11 -0.15
12 0.66
19 0.15
2 -0.57
20 0.15
21 0.15
22 0.15
23 0.15
24 0.06
3 0.14
5 -0.14
6 0.28
7 -0.15
8 -0.15
9 -0.15

> <PUBCHEM_EFFECTIVE_ROTOR_COUNT>
5

> <PUBCHEM_PHARMACOPHORE_FEATURES>
2
1 2 acceptor
6 5 7 8 9 10 11 rings

> <PUBCHEM_HEAVY_ATOM_COUNT>
12

> <PUBCHEM_ATOM_DEF_STEREO_COUNT>
0

> <PUBCHEM_ATOM_UDEF_STEREO_COUNT>
0

> <PUBCHEM_BOND_DEF_STEREO_COUNT>
0

> <PUBCHEM_BOND_UDEF_STEREO_COUNT>
0

> <PUBCHEM_ISOTOPIC_ATOM_COUNT>
0

> <PUBCHEM_COMPONENT_COUNT>
1

> <PUBCHEM_CACTVS_TAUTO_COUNT>
1

> <PUBCHEM_CONFORMER_ID>
0000EE5200000001

> <PUBCHEM_MMFF94_ENERGY>
22.3679

> <PUBCHEM_FEATURE_SELFOVERLAP>
10.148

> <PUBCHEM_SHAPE_FINGERPRINT>
10680689 15 17846495954401523702
11401426 45 11312055439832312962
114248 4 11314310555154983438
12251169 10 18408886243624923253
124424 183 17847057787663486969
13214271 11 18060699485879209781
13675066 3 17775281686198766210
13897977 58 18408046225273481100
14123238 8 18040155123877596190
15219456 202 17917437471149383839
17834072 33 17968382342074656908
200 152 15357694201936383115
20279233 1 17632301172173289311
20645464 45 17846502534692315303
20645477 56 18343305825684695625
20645477 70 13840530845062261640
20828058 21 18412263939356361022
20828058 44 18408040710619635074
20871999 31 9511462183157775299
21119208 17 10952048952781972817
22485316 2 13984659256788474912
2297311 6 18343033185176040772
23402539 116 18272643568037404695
42 15 18409166589252153202
449060 50 18344146986133461300
77779 3 18410856560125066778

> <PUBCHEM_SHAPE_MULTIPOLES>
235.22
9.8
1.11
0.83
11.82
0.01
-0.03
0.08
1.61
-1.36
0.01
0.21
0
-0.02

> <PUBCHEM_SHAPE_SELFOVERLAP>
472.602

> <PUBCHEM_SHAPE_VOLUME>
137.4

> <PUBCHEM_COORDINATE_TYPE>
2
5
10

$$$$
