61024
  -OEChem-11232108573D

 38 37  0     0  0  0  0  0  0999 V2000
   -2.3856   -0.2432   -0.1838 O   0  0  0  0  0  0  0  0  0  0  0  0
   -3.7580    1.4840    0.4891 O   0  0  0  0  0  0  0  0  0  0  0  0
    2.5322   -0.3014   -0.2320 C   0  0  0  0  0  0  0  0  0  0  0  0
    3.8415    0.4239    0.0916 C   0  0  0  0  0  0  0  0  0  0  0  0
    1.2836    0.5069    0.1278 C   0  0  0  0  0  0  0  0  0  0  0  0
    5.0892   -0.4128   -0.1994 C   0  0  0  0  0  0  0  0  0  0  0  0
    0.0089   -0.2718   -0.1938 C   0  0  0  0  0  0  0  0  0  0  0  0
    6.3617    0.3310    0.2091 C   0  0  0  0  0  0  0  0  0  0  0  0
   -1.2398    0.5394    0.1219 C   0  0  0  0  0  0  0  0  0  0  0  0
    7.6032   -0.5099   -0.0419 C   0  0  0  0  0  0  0  0  0  0  0  0
   -4.7204   -0.6039   -0.3121 C   0  0  0  0  0  0  0  0  0  0  0  0
   -3.5978    0.3534    0.0483 C   0  0  0  0  0  0  0  0  0  0  0  0
   -5.0800   -1.4548    0.9001 C   0  0  0  0  0  0  0  0  0  0  0  0
   -5.9388    0.1592   -0.8251 C   0  0  0  0  0  0  0  0  0  0  0  0
    2.5098   -1.2551    0.3101 H   0  0  0  0  0  0  0  0  0  0  0  0
    2.5133   -0.5451   -1.3015 H   0  0  0  0  0  0  0  0  0  0  0  0
    3.8371    0.7050    1.1522 H   0  0  0  0  0  0  0  0  0  0  0  0
    3.8872    1.3576   -0.4825 H   0  0  0  0  0  0  0  0  0  0  0  0
    1.2902    1.4527   -0.4273 H   0  0  0  0  0  0  0  0  0  0  0  0
    1.3027    0.7575    1.1952 H   0  0  0  0  0  0  0  0  0  0  0  0
    5.1271   -0.6567   -1.2678 H   0  0  0  0  0  0  0  0  0  0  0  0
    5.0278   -1.3616    0.3473 H   0  0  0  0  0  0  0  0  0  0  0  0
   -0.0048   -0.5587   -1.2528 H   0  0  0  0  0  0  0  0  0  0  0  0
   -0.0145   -1.2118    0.3718 H   0  0  0  0  0  0  0  0  0  0  0  0
    6.4409    1.2689   -0.3527 H   0  0  0  0  0  0  0  0  0  0  0  0
    6.3161    0.5925    1.2728 H   0  0  0  0  0  0  0  0  0  0  0  0
   -1.2531    1.4566   -0.4786 H   0  0  0  0  0  0  0  0  0  0  0  0
   -1.2542    0.8065    1.1852 H   0  0  0  0  0  0  0  0  0  0  0  0
    8.5009    0.0413    0.2554 H   0  0  0  0  0  0  0  0  0  0  0  0
    7.5699   -1.4405    0.5336 H   0  0  0  0  0  0  0  0  0  0  0  0
    7.6964   -0.7646   -1.1024 H   0  0  0  0  0  0  0  0  0  0  0  0
   -4.3698   -1.2524   -1.1247 H   0  0  0  0  0  0  0  0  0  0  0  0
   -5.8704   -2.1716    0.6548 H   0  0  0  0  0  0  0  0  0  0  0  0
   -5.4271   -0.8335    1.7333 H   0  0  0  0  0  0  0  0  0  0  0  0
   -4.2091   -2.0181    1.2525 H   0  0  0  0  0  0  0  0  0  0  0  0
   -6.7245   -0.5326   -1.1463 H   0  0  0  0  0  0  0  0  0  0  0  0
   -5.6702    0.7891   -1.6802 H   0  0  0  0  0  0  0  0  0  0  0  0
   -6.3575    0.8132   -0.0522 H   0  0  0  0  0  0  0  0  0  0  0  0
  1  9  1  0  0  0  0
  1 12  1  0  0  0  0
  2 12  2  0  0  0  0
  3  4  1  0  0  0  0
  3  5  1  0  0  0  0
  3 15  1  0  0  0  0
  3 16  1  0  0  0  0
  4  6  1  0  0  0  0
  4 17  1  0  0  0  0
  4 18  1  0  0  0  0
  5  7  1  0  0  0  0
  5 19  1  0  0  0  0
  5 20  1  0  0  0  0
  6  8  1  0  0  0  0
  6 21  1  0  0  0  0
  6 22  1  0  0  0  0
  7  9  1  0  0  0  0
  7 23  1  0  0  0  0
  7 24  1  0  0  0  0
  8 10  1  0  0  0  0
  8 25  1  0  0  0  0
  8 26  1  0  0  0  0
  9 27  1  0  0  0  0
  9 28  1  0  0  0  0
 10 29  1  0  0  0  0
 10 30  1  0  0  0  0
 10 31  1  0  0  0  0
 11 12  1  0  0  0  0
 11 13  1  0  0  0  0
 11 14  1  0  0  0  0
 11 32  1  0  0  0  0
 13 33  1  0  0  0  0
 13 34  1  0  0  0  0
 13 35  1  0  0  0  0
 14 36  1  0  0  0  0
 14 37  1  0  0  0  0
 14 38  1  0  0  0  0
M  END
> <PUBCHEM_COMPOUND_CID>
61024

> <PUBCHEM_CONFORMER_RMSD>
1

> <PUBCHEM_CONFORMER_DIVERSEORDER>
1
57
69
16
113
27
43
21
82
66
37
7
114
108
3
52
95
14
121
18
111
97
70
71
64
83
96
104
128
9
4
85
42
123
100
6
89
115
58
34
119
11
81
48
99
10
53
51
17
75
91
46
13
101
77
126
60
2
88
45
15
87
76
40
86
30
73
24
25
26
117
8
94
98
5
90
20
103
63
80
50
106
92
72
68
67
127
32
84
22
74
19
125
65
44
102
28
116
55
41
112
59
36
39
79
49
29
118
12
47
124
23
120
38
110
107
93
109
33
56
61
31
105
62
122
35
54
78

> <PUBCHEM_MMFF94_PARTIAL_CHARGES>
5
1 -0.43
11 0.06
12 0.66
2 -0.57
9 0.28

> <PUBCHEM_EFFECTIVE_ROTOR_COUNT>
9

> <PUBCHEM_PHARMACOPHORE_FEATURES>
5
1 10 hydrophobe
1 2 acceptor
3 11 13 14 hydrophobe
3 3 5 7 hydrophobe
3 4 6 8 hydrophobe

> <PUBCHEM_HEAVY_ATOM_COUNT>
14

> <PUBCHEM_ATOM_DEF_STEREO_COUNT>
0

> <PUBCHEM_ATOM_UDEF_STEREO_COUNT>
0

> <PUBCHEM_BOND_DEF_STEREO_COUNT>
0

> <PUBCHEM_BOND_UDEF_STEREO_COUNT>
0

> <PUBCHEM_ISOTOPIC_ATOM_COUNT>
0

> <PUBCHEM_COMPONENT_COUNT>
1

> <PUBCHEM_CACTVS_TAUTO_COUNT>
1

> <PUBCHEM_CONFORMER_ID>
0000EE6000000001

> <PUBCHEM_MMFF94_ENERGY>
4.0437

> <PUBCHEM_FEATURE_SELFOVERLAP>
25.386

> <PUBCHEM_SHAPE_FINGERPRINT>
11315181 36 18260833713153079297
12091667 2 17917992771934680213
13288520 33 18186239546058663575
13533116 47 18271523092822579946
14123238 8 18131069337651877868
1420 363 18343025501474221238
14251718 22 18114181951588277466
14251732 16 18335702801562684056
14251764 18 15123787401210337036
14251764 46 16774077375866537966
14729087 3 10159704573033619474
15716309 27 18060138751691050166
17834072 33 18041565839892343100
17834076 25 18272931622708768654
19489759 90 18260267443094947161
20621476 8 12685080458952338174
21130983 4 10303808800896020946
220451 1 16225759718465525113
22224240 67 16558743525762807686
23402539 116 16805320007053909047
23521765 1 18342174466858264260
23559900 14 18334852874542335625
33684 2 18410290303062684407
42788 4 18272369772282922736
57583515 80 17530683208244123349
8209 1 18410291410773928132

> <PUBCHEM_SHAPE_MULTIPOLES>
276.37
19.87
1.03
0.75
19.48
0.07
0
3.17
0.62
-1.11
-0.19
-0.57
0.05
0.41

> <PUBCHEM_SHAPE_SELFOVERLAP>
504.254

> <PUBCHEM_SHAPE_VOLUME>
177.2

> <PUBCHEM_COORDINATE_TYPE>
2
5
10

$$$$
