61020
  -OEChem-11232109113D

 14 13  0     0  0  0  0  0  0999 V2000
   -2.6379    0.1977   -0.0003 O   0  0  0  0  0  0  0  0  0  0  0  0
    0.9618    0.0311    0.0000 C   0  0  0  0  0  0  0  0  0  0  0  0
    2.1249    0.9901   -0.0001 C   0  0  0  0  0  0  0  0  0  0  0  0
    1.3687   -1.4162   -0.0001 C   0  0  0  0  0  0  0  0  0  0  0  0
   -0.2945    0.5099    0.0003 C   0  0  0  0  0  0  0  0  0  0  0  0
   -1.5230   -0.3127    0.0001 C   0  0  0  0  0  0  0  0  0  0  0  0
    2.7447    0.8339   -0.8892 H   0  0  0  0  0  0  0  0  0  0  0  0
    2.7452    0.8336    0.8886 H   0  0  0  0  0  0  0  0  0  0  0  0
    1.8039    2.0373    0.0000 H   0  0  0  0  0  0  0  0  0  0  0  0
    1.9734   -1.6346    0.8867 H   0  0  0  0  0  0  0  0  0  0  0  0
    1.9716   -1.6350   -0.8879 H   0  0  0  0  0  0  0  0  0  0  0  0
    0.5308   -2.1147    0.0011 H   0  0  0  0  0  0  0  0  0  0  0  0
   -0.4684    1.5830    0.0004 H   0  0  0  0  0  0  0  0  0  0  0  0
   -1.3984   -1.4040   -0.0003 H   0  0  0  0  0  0  0  0  0  0  0  0
  1  6  2  0  0  0  0
  2  3  1  0  0  0  0
  2  4  1  0  0  0  0
  2  5  2  0  0  0  0
  3  7  1  0  0  0  0
  3  8  1  0  0  0  0
  3  9  1  0  0  0  0
  4 10  1  0  0  0  0
  4 11  1  0  0  0  0
  4 12  1  0  0  0  0
  5  6  1  0  0  0  0
  5 13  1  0  0  0  0
  6 14  1  0  0  0  0
M  END
> <PUBCHEM_COMPOUND_CID>
61020

> <PUBCHEM_CONFORMER_RMSD>
0.4

> <PUBCHEM_CONFORMER_DIVERSEORDER>
1
2

> <PUBCHEM_MMFF94_PARTIAL_CHARGES>
8
1 -0.57
13 0.15
14 0.06
2 -0.28
3 0.14
4 0.14
5 -0.14
6 0.5

> <PUBCHEM_EFFECTIVE_ROTOR_COUNT>
1

> <PUBCHEM_PHARMACOPHORE_FEATURES>
2
1 1 acceptor
3 2 3 4 hydrophobe

> <PUBCHEM_HEAVY_ATOM_COUNT>
6

> <PUBCHEM_ATOM_DEF_STEREO_COUNT>
0

> <PUBCHEM_ATOM_UDEF_STEREO_COUNT>
0

> <PUBCHEM_BOND_DEF_STEREO_COUNT>
0

> <PUBCHEM_BOND_UDEF_STEREO_COUNT>
0

> <PUBCHEM_ISOTOPIC_ATOM_COUNT>
0

> <PUBCHEM_COMPONENT_COUNT>
1

> <PUBCHEM_CACTVS_TAUTO_COUNT>
1

> <PUBCHEM_CONFORMER_ID>
0000EE5C00000001

> <PUBCHEM_MMFF94_ENERGY>
5.8225

> <PUBCHEM_FEATURE_SELFOVERLAP>
10.148

> <PUBCHEM_SHAPE_FINGERPRINT>
139733 1 9222644705660395106
14390081 3 18272931665120819777
20096714 4 18341894155453888736
21040471 1 18266460000014597760
23552449 11 18188760648437216546
24536 1 18337658729173397233
29004967 10 18259991478350176825
5460574 1 9295297135673566177

> <PUBCHEM_SHAPE_MULTIPOLES>
117.61
3.16
1.19
0.6
1.5
0.33
0
-0.43
0
-0.74
0
-0.04
0
0

> <PUBCHEM_SHAPE_SELFOVERLAP>
211.236

> <PUBCHEM_SHAPE_VOLUME>
76.5

> <PUBCHEM_COORDINATE_TYPE>
2
5
10

$$$$
