61027
  -OEChem-11232109083D

 45 44  0     0  0  0  0  0  0999 V2000
   -4.1303   -0.2821   -0.0276 O   0  0  0  0  0  0  0  0  0  0  0  0
   -3.0440    1.7525   -0.0533 O   0  0  0  0  0  0  0  0  0  0  0  0
    2.0333    0.4411   -0.0170 C   0  0  0  0  0  0  0  0  0  0  0  0
    3.2829   -0.4420    0.0146 C   0  0  0  0  0  0  0  0  0  0  0  0
    0.7565   -0.4017   -0.0492 C   0  0  0  0  0  0  0  0  0  0  0  0
    4.5566    0.4036    0.0789 C   0  0  0  0  0  0  0  0  0  0  0  0
   -0.4930    0.4844   -0.0473 C   0  0  0  0  0  0  0  0  0  0  0  0
    5.8394   -0.4312    0.1439 C   0  0  0  0  0  0  0  0  0  0  0  0
   -1.7865   -0.3301   -0.0456 C   0  0  0  0  0  0  0  0  0  0  0  0
    7.1112    0.4158    0.2335 C   0  0  0  0  0  0  0  0  0  0  0  0
   -3.0315    0.5292   -0.0523 C   0  0  0  0  0  0  0  0  0  0  0  0
   -6.5042   -0.6486    0.0246 C   0  0  0  0  0  0  0  0  0  0  0  0
   -5.3930    0.3912   -0.0006 C   0  0  0  0  0  0  0  0  0  0  0  0
    8.3344   -0.4506    0.3072 C   0  0  0  0  0  0  0  0  0  0  0  0
   -7.8846    0.0021    0.0380 C   0  0  0  0  0  0  0  0  0  0  0  0
   -8.9918   -1.0395    0.0197 C   0  0  0  0  0  0  0  0  0  0  0  0
    9.3447   -0.3940   -0.5675 C   0  0  0  0  0  0  0  0  0  0  0  0
    2.0212    1.0901    0.8672 H   0  0  0  0  0  0  0  0  0  0  0  0
    2.0658    1.0943   -0.8975 H   0  0  0  0  0  0  0  0  0  0  0  0
    3.3094   -1.0786   -0.8778 H   0  0  0  0  0  0  0  0  0  0  0  0
    3.2423   -1.1068    0.8859 H   0  0  0  0  0  0  0  0  0  0  0  0
    0.7552   -1.0372   -0.9429 H   0  0  0  0  0  0  0  0  0  0  0  0
    0.7329   -1.0672    0.8223 H   0  0  0  0  0  0  0  0  0  0  0  0
    4.6003    1.0600   -0.7991 H   0  0  0  0  0  0  0  0  0  0  0  0
    4.5125    1.0561    0.9599 H   0  0  0  0  0  0  0  0  0  0  0  0
   -0.4767    1.1421   -0.9256 H   0  0  0  0  0  0  0  0  0  0  0  0
   -0.4769    1.1400    0.8326 H   0  0  0  0  0  0  0  0  0  0  0  0
    5.7840   -1.1001    1.0126 H   0  0  0  0  0  0  0  0  0  0  0  0
    5.8903   -1.0746   -0.7440 H   0  0  0  0  0  0  0  0  0  0  0  0
   -1.8167   -0.9627    0.8488 H   0  0  0  0  0  0  0  0  0  0  0  0
   -1.8147   -0.9716   -0.9337 H   0  0  0  0  0  0  0  0  0  0  0  0
    7.1630    1.0934   -0.6273 H   0  0  0  0  0  0  0  0  0  0  0  0
    7.0732    1.0423    1.1325 H   0  0  0  0  0  0  0  0  0  0  0  0
   -6.4030   -1.3066   -0.8476 H   0  0  0  0  0  0  0  0  0  0  0  0
   -6.3794   -1.2945    0.9027 H   0  0  0  0  0  0  0  0  0  0  0  0
   -5.4474    1.0226    0.8939 H   0  0  0  0  0  0  0  0  0  0  0  0
   -5.4853    1.0202   -0.8938 H   0  0  0  0  0  0  0  0  0  0  0  0
    8.4018   -1.1519    1.1349 H   0  0  0  0  0  0  0  0  0  0  0  0
   -7.9923    0.6281    0.9313 H   0  0  0  0  0  0  0  0  0  0  0  0
   -7.9962    0.6579   -0.8334 H   0  0  0  0  0  0  0  0  0  0  0  0
   -8.9283   -1.6948    0.8944 H   0  0  0  0  0  0  0  0  0  0  0  0
   -9.9714   -0.5516    0.0312 H   0  0  0  0  0  0  0  0  0  0  0  0
   -8.9320   -1.6602   -0.8800 H   0  0  0  0  0  0  0  0  0  0  0  0
   10.2065   -1.0426   -0.4540 H   0  0  0  0  0  0  0  0  0  0  0  0
    9.3317    0.2934   -1.4060 H   0  0  0  0  0  0  0  0  0  0  0  0
  1 11  1  0  0  0  0
  1 13  1  0  0  0  0
  2 11  2  0  0  0  0
  3  4  1  0  0  0  0
  3  5  1  0  0  0  0
  3 18  1  0  0  0  0
  3 19  1  0  0  0  0
  4  6  1  0  0  0  0
  4 20  1  0  0  0  0
  4 21  1  0  0  0  0
  5  7  1  0  0  0  0
  5 22  1  0  0  0  0
  5 23  1  0  0  0  0
  6  8  1  0  0  0  0
  6 24  1  0  0  0  0
  6 25  1  0  0  0  0
  7  9  1  0  0  0  0
  7 26  1  0  0  0  0
  7 27  1  0  0  0  0
  8 10  1  0  0  0  0
  8 28  1  0  0  0  0
  8 29  1  0  0  0  0
  9 11  1  0  0  0  0
  9 30  1  0  0  0  0
  9 31  1  0  0  0  0
 10 14  1  0  0  0  0
 10 32  1  0  0  0  0
 10 33  1  0  0  0  0
 12 13  1  0  0  0  0
 12 15  1  0  0  0  0
 12 34  1  0  0  0  0
 12 35  1  0  0  0  0
 13 36  1  0  0  0  0
 13 37  1  0  0  0  0
 14 17  2  0  0  0  0
 14 38  1  0  0  0  0
 15 16  1  0  0  0  0
 15 39  1  0  0  0  0
 15 40  1  0  0  0  0
 16 41  1  0  0  0  0
 16 42  1  0  0  0  0
 16 43  1  0  0  0  0
 17 44  1  0  0  0  0
 17 45  1  0  0  0  0
M  END
> <PUBCHEM_COMPOUND_CID>
61027

> <PUBCHEM_CONFORMER_RMSD>
1.2

> <PUBCHEM_CONFORMER_DIVERSEORDER>
1
61
43
82
34
83
78
51
68
57
14
33
4
36
92
41
88
52
46
59
42
20
40
76
71
23
74
54
6
84
7
21
87
27
19
28
32
15
47
85
31
13
62
9
50
89
44
86
24
56
90
55
72
60
37
64
79
11
80
5
35
65
22
73
75
39
17
2
70
29
38
48
45
91
49
10
63
53
30
8
66
67
25
3
12
69
77
58
16
26
81
18

> <PUBCHEM_MMFF94_PARTIAL_CHARGES>
11
1 -0.43
10 0.14
11 0.66
13 0.28
14 -0.29
17 -0.3
2 -0.57
38 0.15
44 0.15
45 0.15
9 0.06

> <PUBCHEM_EFFECTIVE_ROTOR_COUNT>
13

> <PUBCHEM_PHARMACOPHORE_FEATURES>
3
1 16 hydrophobe
1 17 hydrophobe
1 2 acceptor

> <PUBCHEM_HEAVY_ATOM_COUNT>
17

> <PUBCHEM_ATOM_DEF_STEREO_COUNT>
0

> <PUBCHEM_ATOM_UDEF_STEREO_COUNT>
0

> <PUBCHEM_BOND_DEF_STEREO_COUNT>
0

> <PUBCHEM_BOND_UDEF_STEREO_COUNT>
0

> <PUBCHEM_ISOTOPIC_ATOM_COUNT>
0

> <PUBCHEM_COMPONENT_COUNT>
1

> <PUBCHEM_CACTVS_TAUTO_COUNT>
1

> <PUBCHEM_CONFORMER_ID>
0000EE6300000001

> <PUBCHEM_MMFF94_ENERGY>
2.2126

> <PUBCHEM_FEATURE_SELFOVERLAP>
15.223

> <PUBCHEM_SHAPE_FINGERPRINT>
11315181 36 13190345651571966853
11638347 137 17418379074015377526
14123256 10 18333731316520134507
14202775 3 18412268336892403454
14251764 18 18187363212503384722
14251764 46 16487256573268317591
14344974 52 12179853831492874535
15690457 1 18261108586406457307
16120349 18 16877948269935004564
17834076 25 16487535845396180328
18006028 8 13840264788559304822
18335252 98 18201722838082444374
20621476 8 10663822970392386955
21095086 128 18413107247695527950
21150785 3 16732983124393843234
21267235 1 18412826893077690088
21315763 28 18409166602379960012
22224240 67 18410290324057901682
232437 2 18411138043449469683
23521765 1 18341894095129018370
246663 6 18410857663446391146
28498 318 11097849688336641488
33684 2 18409729560332218930
4325135 7 18408322189659295518
59682541 35 18201435908507687579
67123 10 18410573998041627782
8209 1 17530964683326290022

> <PUBCHEM_SHAPE_MULTIPOLES>
338.11
32.46
0.97
0.64
8.8
0.16
-0.01
-7.89
-0.38
-0.81
-0.01
0.3
-0.02
0.12

> <PUBCHEM_SHAPE_SELFOVERLAP>
618.489

> <PUBCHEM_SHAPE_VOLUME>
214.6

> <PUBCHEM_COORDINATE_TYPE>
2
5
10

$$$$
