61035
  -OEChem-11232108483D

 39 38  0     0  0  0  0  0  0999 V2000
   -5.1537    0.5391   -0.0123 O   0  0  0  0  0  0  0  0  0  0  0  0
   -6.5759   -1.2735   -0.1839 O   0  0  0  0  0  0  0  0  0  0  0  0
    1.1011   -0.4459    0.1306 C   0  0  0  0  0  0  0  0  0  0  0  0
    2.3779    0.3985    0.1390 C   0  0  0  0  0  0  0  0  0  0  0  0
   -0.1830    0.3888    0.1082 C   0  0  0  0  0  0  0  0  0  0  0  0
    3.6253   -0.4890    0.1535 C   0  0  0  0  0  0  0  0  0  0  0  0
   -1.4943   -0.4006    0.0361 C   0  0  0  0  0  0  0  0  0  0  0  0
    4.9361    0.3026    0.1973 C   0  0  0  0  0  0  0  0  0  0  0  0
   -2.7420    0.4881    0.0473 C   0  0  0  0  0  0  0  0  0  0  0  0
    6.1829   -0.5834    0.1372 C   0  0  0  0  0  0  0  0  0  0  0  0
   -4.0277   -0.3260   -0.0468 C   0  0  0  0  0  0  0  0  0  0  0  0
    7.4362    0.2403    0.1970 C   0  0  0  0  0  0  0  0  0  0  0  0
    8.3574    0.2709   -0.7723 C   0  0  0  0  0  0  0  0  0  0  0  0
   -6.3763   -0.0699   -0.0895 C   0  0  0  0  0  0  0  0  0  0  0  0
   -7.4641    0.9599   -0.0413 C   0  0  0  0  0  0  0  0  0  0  0  0
    1.0867   -1.0959    1.0141 H   0  0  0  0  0  0  0  0  0  0  0  0
    1.1102   -1.1047   -0.7466 H   0  0  0  0  0  0  0  0  0  0  0  0
    2.3802    1.0510    1.0202 H   0  0  0  0  0  0  0  0  0  0  0  0
    2.3981    1.0468   -0.7451 H   0  0  0  0  0  0  0  0  0  0  0  0
   -0.1420    1.0718   -0.7499 H   0  0  0  0  0  0  0  0  0  0  0  0
   -0.2026    1.0217    1.0046 H   0  0  0  0  0  0  0  0  0  0  0  0
    3.5858   -1.1593    1.0213 H   0  0  0  0  0  0  0  0  0  0  0  0
    3.6217   -1.1267   -0.7393 H   0  0  0  0  0  0  0  0  0  0  0  0
   -1.4918   -1.0113   -0.8751 H   0  0  0  0  0  0  0  0  0  0  0  0
   -1.5386   -1.0956    0.8835 H   0  0  0  0  0  0  0  0  0  0  0  0
    4.9560    0.9064    1.1139 H   0  0  0  0  0  0  0  0  0  0  0  0
    4.9531    1.0086   -0.6432 H   0  0  0  0  0  0  0  0  0  0  0  0
   -2.7039    1.2015   -0.7854 H   0  0  0  0  0  0  0  0  0  0  0  0
   -2.7626    1.0953    0.9608 H   0  0  0  0  0  0  0  0  0  0  0  0
    6.1584   -1.1908   -0.7756 H   0  0  0  0  0  0  0  0  0  0  0  0
    6.1820   -1.2799    0.9839 H   0  0  0  0  0  0  0  0  0  0  0  0
   -4.0365   -0.8963   -0.9833 H   0  0  0  0  0  0  0  0  0  0  0  0
   -4.0840   -1.0264    0.7950 H   0  0  0  0  0  0  0  0  0  0  0  0
    7.6011    0.8355    1.0913 H   0  0  0  0  0  0  0  0  0  0  0  0
    9.2461    0.8834   -0.6662 H   0  0  0  0  0  0  0  0  0  0  0  0
    8.2436   -0.3082   -1.6820 H   0  0  0  0  0  0  0  0  0  0  0  0
   -7.4136    1.5080    0.9028 H   0  0  0  0  0  0  0  0  0  0  0  0
   -8.4368    0.4636   -0.1048 H   0  0  0  0  0  0  0  0  0  0  0  0
   -7.3656    1.6426   -0.8890 H   0  0  0  0  0  0  0  0  0  0  0  0
  1 11  1  0  0  0  0
  1 14  1  0  0  0  0
  2 14  2  0  0  0  0
  3  4  1  0  0  0  0
  3  5  1  0  0  0  0
  3 16  1  0  0  0  0
  3 17  1  0  0  0  0
  4  6  1  0  0  0  0
  4 18  1  0  0  0  0
  4 19  1  0  0  0  0
  5  7  1  0  0  0  0
  5 20  1  0  0  0  0
  5 21  1  0  0  0  0
  6  8  1  0  0  0  0
  6 22  1  0  0  0  0
  6 23  1  0  0  0  0
  7  9  1  0  0  0  0
  7 24  1  0  0  0  0
  7 25  1  0  0  0  0
  8 10  1  0  0  0  0
  8 26  1  0  0  0  0
  8 27  1  0  0  0  0
  9 11  1  0  0  0  0
  9 28  1  0  0  0  0
  9 29  1  0  0  0  0
 10 12  1  0  0  0  0
 10 30  1  0  0  0  0
 10 31  1  0  0  0  0
 11 32  1  0  0  0  0
 11 33  1  0  0  0  0
 12 13  2  0  0  0  0
 12 34  1  0  0  0  0
 13 35  1  0  0  0  0
 13 36  1  0  0  0  0
 14 15  1  0  0  0  0
 15 37  1  0  0  0  0
 15 38  1  0  0  0  0
 15 39  1  0  0  0  0
M  END
> <PUBCHEM_COMPOUND_CID>
61035

> <PUBCHEM_CONFORMER_RMSD>
1.2

> <PUBCHEM_CONFORMER_DIVERSEORDER>
1
25
24
29
26
57
21
10
60
9
19
2
18
39
32
23
48
4
44
58
54
16
14
52
41
6
37
34
8
53
51
5
27
47
49
43
38
35
12
13
11
15
40
33
22
45
42
3
46
36
28
31
30
50
59
20
56
55
7
17

> <PUBCHEM_MMFF94_PARTIAL_CHARGES>
11
1 -0.43
10 0.14
11 0.28
12 -0.29
13 -0.3
14 0.66
15 0.06
2 -0.57
34 0.15
35 0.15
36 0.15

> <PUBCHEM_EFFECTIVE_ROTOR_COUNT>
11

> <PUBCHEM_PHARMACOPHORE_FEATURES>
2
1 13 hydrophobe
1 2 acceptor

> <PUBCHEM_HEAVY_ATOM_COUNT>
15

> <PUBCHEM_ATOM_DEF_STEREO_COUNT>
0

> <PUBCHEM_ATOM_UDEF_STEREO_COUNT>
0

> <PUBCHEM_BOND_DEF_STEREO_COUNT>
0

> <PUBCHEM_BOND_UDEF_STEREO_COUNT>
0

> <PUBCHEM_ISOTOPIC_ATOM_COUNT>
0

> <PUBCHEM_COMPONENT_COUNT>
1

> <PUBCHEM_CACTVS_TAUTO_COUNT>
1

> <PUBCHEM_CONFORMER_ID>
0000EE6B00000001

> <PUBCHEM_MMFF94_ENERGY>
4.6573

> <PUBCHEM_FEATURE_SELFOVERLAP>
10.148

> <PUBCHEM_SHAPE_FINGERPRINT>
10968037 39 18333448742622503323
11315181 36 18272374179051237697
11638347 137 13479125788692571888
12091667 2 17894912923962611225
13533116 47 17385994032475918042
14123256 10 18410575080378667624
14251764 18 18187362129965988618
14251764 46 18410575084668366679
14729087 3 12179837308295030511
155225 1 17458633359435899724
17834076 25 18410573985156732402
18006028 8 15770057228845143584
20621476 8 18060419101708024284
21150785 3 18113618989103336564
22224240 67 14562531795339401136
23521765 1 18341894090834057576
246663 6 16845575326643391318
28498 318 15267347301797228804
33532 11 13758080671519245620
33684 2 18410854352031880690
42788 4 18412261740116879521
59567204 34 18129664094107072777
59682541 35 7853564704523061828
8209 1 18410855460133443040

> <PUBCHEM_SHAPE_MULTIPOLES>
296.95
26.89
0.89
0.66
6.07
0.06
0.03
-1.96
2.97
-0.79
0.01
0.43
-0.01
-0.22

> <PUBCHEM_SHAPE_SELFOVERLAP>
541.18

> <PUBCHEM_SHAPE_VOLUME>
188.8

> <PUBCHEM_COORDINATE_TYPE>
2
5
10

$$$$
