61046
  -OEChem-11232109443D

 37 38  0     0  0  0  0  0  0999 V2000
   -0.9398   -0.0175    0.4120 O   0  0  0  0  0  0  0  0  0  0  0  0
    0.5009    2.3536    0.2444 O   0  0  0  0  0  0  0  0  0  0  0  0
    0.4190   -0.0383    0.3176 C   0  0  0  0  0  0  0  0  0  0  0  0
   -1.6716   -0.6725   -0.6223 C   0  0  0  0  0  0  0  0  0  0  0  0
    1.1421    1.1516    0.2330 C   0  0  0  0  0  0  0  0  0  0  0  0
   -3.1403   -0.5136   -0.3592 C   0  0  0  0  0  0  0  0  0  0  0  0
    3.2010   -0.1077    0.1219 C   0  0  0  0  0  0  0  0  0  0  0  0
    2.5332    1.1169    0.1352 C   0  0  0  0  0  0  0  0  0  0  0  0
    1.0868   -1.2628    0.3044 C   0  0  0  0  0  0  0  0  0  0  0  0
    2.4777   -1.2975    0.2065 C   0  0  0  0  0  0  0  0  0  0  0  0
   -3.8092   -1.4626    0.4059 C   0  0  0  0  0  0  0  0  0  0  0  0
   -3.8191    0.5812   -0.8824 C   0  0  0  0  0  0  0  0  0  0  0  0
    4.6514   -0.1444    0.0208 C   0  0  0  0  0  0  0  0  0  0  0  0
   -5.1744   -1.3150    0.6508 C   0  0  0  0  0  0  0  0  0  0  0  0
   -5.1843    0.7289   -0.6374 C   0  0  0  0  0  0  0  0  0  0  0  0
   -5.8619   -0.2193    0.1291 C   0  0  0  0  0  0  0  0  0  0  0  0
    5.3916   -1.2040   -0.3772 C   0  0  0  0  0  0  0  0  0  0  0  0
    1.3133    3.5223    0.1542 C   0  0  0  0  0  0  0  0  0  0  0  0
    6.8836   -1.1992   -0.4572 C   0  0  0  0  0  0  0  0  0  0  0  0
   -1.4247   -1.7402   -0.6659 H   0  0  0  0  0  0  0  0  0  0  0  0
   -1.4109   -0.2358   -1.5953 H   0  0  0  0  0  0  0  0  0  0  0  0
    3.1430    2.0121    0.0649 H   0  0  0  0  0  0  0  0  0  0  0  0
    0.5428   -2.1992    0.3913 H   0  0  0  0  0  0  0  0  0  0  0  0
    2.9563   -2.2723    0.2241 H   0  0  0  0  0  0  0  0  0  0  0  0
   -3.2829   -2.3186    0.8191 H   0  0  0  0  0  0  0  0  0  0  0  0
   -3.3006    1.3269   -1.4788 H   0  0  0  0  0  0  0  0  0  0  0  0
    5.1698    0.7732    0.2915 H   0  0  0  0  0  0  0  0  0  0  0  0
   -5.7020   -2.0528    1.2482 H   0  0  0  0  0  0  0  0  0  0  0  0
   -5.7198    1.5824   -1.0430 H   0  0  0  0  0  0  0  0  0  0  0  0
   -6.9249   -0.1041    0.3201 H   0  0  0  0  0  0  0  0  0  0  0  0
    4.9229   -2.1351   -0.6815 H   0  0  0  0  0  0  0  0  0  0  0  0
    1.8516    3.5677   -0.7987 H   0  0  0  0  0  0  0  0  0  0  0  0
    1.9810    3.6181    1.0172 H   0  0  0  0  0  0  0  0  0  0  0  0
    0.6392    4.3850    0.1782 H   0  0  0  0  0  0  0  0  0  0  0  0
    7.2939   -1.9789    0.1917 H   0  0  0  0  0  0  0  0  0  0  0  0
    7.2025   -1.4022   -1.4840 H   0  0  0  0  0  0  0  0  0  0  0  0
    7.3115   -0.2397   -0.1502 H   0  0  0  0  0  0  0  0  0  0  0  0
  1  3  1  0  0  0  0
  1  4  1  0  0  0  0
  2  5  1  0  0  0  0
  2 18  1  0  0  0  0
  3  5  2  0  0  0  0
  3  9  1  0  0  0  0
  4  6  1  0  0  0  0
  4 20  1  0  0  0  0
  4 21  1  0  0  0  0
  5  8  1  0  0  0  0
  6 11  2  0  0  0  0
  6 12  1  0  0  0  0
  7  8  2  0  0  0  0
  7 10  1  0  0  0  0
  7 13  1  0  0  0  0
  8 22  1  0  0  0  0
  9 10  2  0  0  0  0
  9 23  1  0  0  0  0
 10 24  1  0  0  0  0
 11 14  1  0  0  0  0
 11 25  1  0  0  0  0
 12 15  2  0  0  0  0
 12 26  1  0  0  0  0
 13 17  2  3  0  0  0
 13 27  1  0  0  0  0
 14 16  2  0  0  0  0
 14 28  1  0  0  0  0
 15 16  1  0  0  0  0
 15 29  1  0  0  0  0
 16 30  1  0  0  0  0
 17 19  1  0  0  0  0
 17 31  1  0  0  0  0
 18 32  1  0  0  0  0
 18 33  1  0  0  0  0
 18 34  1  0  0  0  0
 19 35  1  0  0  0  0
 19 36  1  0  0  0  0
 19 37  1  0  0  0  0
M  END
> <PUBCHEM_COMPOUND_CID>
61046

> <PUBCHEM_CONFORMER_RMSD>
0.6

> <PUBCHEM_CONFORMER_DIVERSEORDER>
38
60
80
65
81
61
2
73
43
62
6
54
36
55
69
59
1
5
45
22
49
26
76
4
66
78
27
9
58
16
50
20
30
10
82
28
13
70
33
17
37
46
44
64
67
71
3
39
47
72
63
21
25
35
8
68
79
29
11
12
40
18
83
42
53
75
7
31
57
15
77
56
48
52
23
41
19
74
51
24
34
32
14

> <PUBCHEM_MMFF94_PARTIAL_CHARGES>
29
1 -0.36
10 -0.15
11 -0.15
12 -0.15
13 -0.18
14 -0.15
15 -0.15
16 -0.15
17 -0.29
18 0.28
19 0.14
2 -0.36
22 0.15
23 0.15
24 0.15
25 0.15
26 0.15
27 0.15
28 0.15
29 0.15
3 0.08
30 0.15
31 0.15
4 0.42
5 0.08
6 -0.14
7 0.03
8 -0.15
9 -0.15

> <PUBCHEM_EFFECTIVE_ROTOR_COUNT>
5

> <PUBCHEM_PHARMACOPHORE_FEATURES>
5
1 1 acceptor
1 19 hydrophobe
1 2 acceptor
6 3 5 7 8 9 10 rings
6 6 11 12 14 15 16 rings

> <PUBCHEM_HEAVY_ATOM_COUNT>
19

> <PUBCHEM_ATOM_DEF_STEREO_COUNT>
0

> <PUBCHEM_ATOM_UDEF_STEREO_COUNT>
0

> <PUBCHEM_BOND_DEF_STEREO_COUNT>
0

> <PUBCHEM_BOND_UDEF_STEREO_COUNT>
1

> <PUBCHEM_ISOTOPIC_ATOM_COUNT>
0

> <PUBCHEM_COMPONENT_COUNT>
1

> <PUBCHEM_CACTVS_TAUTO_COUNT>
1

> <PUBCHEM_CONFORMER_ID>
0000EE7600000026

> <PUBCHEM_MMFF94_ENERGY>
67.1897

> <PUBCHEM_FEATURE_SELFOVERLAP>
25.376

> <PUBCHEM_SHAPE_FINGERPRINT>
10366900 7 17531239587303835499
12166972 35 17822016402378727924
12236239 1 17632296791491367411
12507557 5 18413106182543398449
12516196 113 18413387631549806122
12788726 201 18190737544806217448
12841375 25 18412545405653719492
12916754 54 18268708493231278111
13134695 92 17703501194323518897
13533116 47 15123516861737879646
13590594 115 18412553084691989065
13862211 1 18411135814820476538
14251752 14 18041275470349683118
14341114 176 18335987562252699161
15081414 286 18341326807713192432
16087824 20 18194683658164961009
17844677 252 18411705413319728113
18006028 8 18130786742290102592
1813 80 18059029314752614540
18785283 64 18044653337300245980
19141452 34 17704065222698509222
19784866 140 18335136445637094922
200 152 18131349709112195947
20286276 3 18049726514025910595
20612939 158 18335425702809826276
21033648 29 17488724715067792193
21054139 6 7997675468709269609
21065198 57 18335982069147711683
21236236 1 18200595782950926328
21267235 1 18412269427823580651
21641784 216 18042139678121253660
21709351 56 18340760529296662943
21792961 116 18187922812113634030
22079108 93 10881692329582429262
221357 26 18408034113877078637
221490 88 18191590954554815691
22182313 1 18195782185975661824
22224240 67 8574424310048634884
2297311 6 17966972721107778663
23198884 109 16153430523744223422
23402539 116 18201714050911718214
23536379 177 16732700519930625426
23557571 272 18199751354100139588
23559900 14 18338509846021422209
300161 21 10447939356291002379
3004659 81 18113901551039290446
335352 9 18411417306765579389
3545911 37 18333730209125414911
4214541 1 18408321099555117299
4463277 17 18411699889922947284
465052 167 18272374166055962190
5104073 3 18337388365788687715
542803 24 15864068767402474831
5758199 1 10737289026067337670
59755656 215 18338238163792251198
7495541 125 18187086199596871707
77779 3 18334856156292670059
8863177 126 18042978755553383699
9971528 1 18201147841009599368
9981440 41 17262140940523819608

> <PUBCHEM_SHAPE_MULTIPOLES>
379.27
14.49
2.27
0.78
1.19
2.48
-0.05
-6.73
-1.81
1.24
0.25
-0.34
-0.04
0.91

> <PUBCHEM_SHAPE_SELFOVERLAP>
799.401

> <PUBCHEM_SHAPE_VOLUME>
214.2

> <PUBCHEM_COORDINATE_TYPE>
2
5
10

$$$$
