61050
  -OEChem-11232109423D

 42 42  0     0  0  0  0  0  0999 V2000
   -0.5219    0.0600   -0.5481 O   0  0  0  0  0  0  0  0  0  0  0  0
   -1.9829   -0.1731    1.2216 O   0  0  0  0  0  0  0  0  0  0  0  0
    4.3929    0.1285   -0.3716 C   0  0  0  0  0  0  0  0  0  0  0  0
    5.6626    0.0048    0.4757 C   0  0  0  0  0  0  0  0  0  0  0  0
    3.1035   -0.0285    0.4376 C   0  0  0  0  0  0  0  0  0  0  0  0
    6.9521    0.0881   -0.3440 C   0  0  0  0  0  0  0  0  0  0  0  0
    1.8711    0.0802   -0.4590 C   0  0  0  0  0  0  0  0  0  0  0  0
    8.1836   -0.1135    0.5403 C   0  0  0  0  0  0  0  0  0  0  0  0
    0.5817   -0.0334    0.3420 C   0  0  0  0  0  0  0  0  0  0  0  0
    9.4670   -0.0700   -0.2737 C   0  0  0  0  0  0  0  0  0  0  0  0
   -2.8174    0.0893   -1.0490 C   0  0  0  0  0  0  0  0  0  0  0  0
   -1.7639   -0.0257    0.0269 C   0  0  0  0  0  0  0  0  0  0  0  0
   -4.2216    0.0425   -0.5043 C   0  0  0  0  0  0  0  0  0  0  0  0
   -4.8784   -1.1812   -0.3733 C   0  0  0  0  0  0  0  0  0  0  0  0
   -4.8647    1.2226   -0.1307 C   0  0  0  0  0  0  0  0  0  0  0  0
   -6.1782   -1.2247    0.1311 C   0  0  0  0  0  0  0  0  0  0  0  0
   -6.1644    1.1790    0.3738 C   0  0  0  0  0  0  0  0  0  0  0  0
   -6.8211   -0.0447    0.5046 C   0  0  0  0  0  0  0  0  0  0  0  0
    4.3919    1.1039   -0.8738 H   0  0  0  0  0  0  0  0  0  0  0  0
    4.4155   -0.6334   -1.1607 H   0  0  0  0  0  0  0  0  0  0  0  0
    5.6386   -0.9528    1.0108 H   0  0  0  0  0  0  0  0  0  0  0  0
    5.6645    0.7931    1.2387 H   0  0  0  0  0  0  0  0  0  0  0  0
    3.0658    0.7440    1.2151 H   0  0  0  0  0  0  0  0  0  0  0  0
    3.1046   -1.0001    0.9460 H   0  0  0  0  0  0  0  0  0  0  0  0
    6.9354   -0.6774   -1.1292 H   0  0  0  0  0  0  0  0  0  0  0  0
    7.0076    1.0628   -0.8434 H   0  0  0  0  0  0  0  0  0  0  0  0
    1.8919   -0.7011   -1.2291 H   0  0  0  0  0  0  0  0  0  0  0  0
    1.8773    1.0348   -1.0001 H   0  0  0  0  0  0  0  0  0  0  0  0
    8.1194   -1.0792    1.0551 H   0  0  0  0  0  0  0  0  0  0  0  0
    8.2186    0.6641    1.3121 H   0  0  0  0  0  0  0  0  0  0  0  0
    0.5256    0.7760    1.0795 H   0  0  0  0  0  0  0  0  0  0  0  0
    0.5484   -0.9971    0.8638 H   0  0  0  0  0  0  0  0  0  0  0  0
    9.4772   -0.8587   -1.0328 H   0  0  0  0  0  0  0  0  0  0  0  0
   10.3343   -0.2145    0.3780 H   0  0  0  0  0  0  0  0  0  0  0  0
    9.5783    0.8948   -0.7788 H   0  0  0  0  0  0  0  0  0  0  0  0
   -2.6739   -0.7276   -1.7662 H   0  0  0  0  0  0  0  0  0  0  0  0
   -2.6655    1.0324   -1.5875 H   0  0  0  0  0  0  0  0  0  0  0  0
   -4.3873   -2.1076   -0.6589 H   0  0  0  0  0  0  0  0  0  0  0  0
   -4.3629    2.1819   -0.2259 H   0  0  0  0  0  0  0  0  0  0  0  0
   -6.6894   -2.1775    0.2335 H   0  0  0  0  0  0  0  0  0  0  0  0
   -6.6650    2.0977    0.6653 H   0  0  0  0  0  0  0  0  0  0  0  0
   -7.8330   -0.0786    0.8977 H   0  0  0  0  0  0  0  0  0  0  0  0
  1  9  1  0  0  0  0
  1 12  1  0  0  0  0
  2 12  2  0  0  0  0
  3  4  1  0  0  0  0
  3  5  1  0  0  0  0
  3 19  1  0  0  0  0
  3 20  1  0  0  0  0
  4  6  1  0  0  0  0
  4 21  1  0  0  0  0
  4 22  1  0  0  0  0
  5  7  1  0  0  0  0
  5 23  1  0  0  0  0
  5 24  1  0  0  0  0
  6  8  1  0  0  0  0
  6 25  1  0  0  0  0
  6 26  1  0  0  0  0
  7  9  1  0  0  0  0
  7 27  1  0  0  0  0
  7 28  1  0  0  0  0
  8 10  1  0  0  0  0
  8 29  1  0  0  0  0
  8 30  1  0  0  0  0
  9 31  1  0  0  0  0
  9 32  1  0  0  0  0
 10 33  1  0  0  0  0
 10 34  1  0  0  0  0
 10 35  1  0  0  0  0
 11 12  1  0  0  0  0
 11 13  1  0  0  0  0
 11 36  1  0  0  0  0
 11 37  1  0  0  0  0
 13 14  2  0  0  0  0
 13 15  1  0  0  0  0
 14 16  1  0  0  0  0
 14 38  1  0  0  0  0
 15 17  2  0  0  0  0
 15 39  1  0  0  0  0
 16 18  2  0  0  0  0
 16 40  1  0  0  0  0
 17 18  1  0  0  0  0
 17 41  1  0  0  0  0
 18 42  1  0  0  0  0
M  END
> <PUBCHEM_COMPOUND_CID>
61050

> <PUBCHEM_CONFORMER_RMSD>
1

> <PUBCHEM_CONFORMER_DIVERSEORDER>
1
10
19
158
54
119
156
82
18
129
128
13
27
197
181
208
222
162
105
41
46
224
109
171
65
192
56
6
159
69
180
20
55
149
202
183
122
131
50
58
209
11
7
196
59
142
12
77
232
173
85
84
107
108
15
80
114
136
2
102
106
127
26
141
139
157
210
44
32
229
143
28
76
116
37
110
148
87
33
25
83
64
3
17
120
211
117
42
207
43
187
36
89
221
194
137
182
191
112
140
98
92
215
24
53
214
97
14
124
126
123
163
35
189
60
147
226
66
4
5
193
217
78
121
48
111
73
34
169
57
104
223
227
45
40
8
188
49
153
138
47
52
174
21
230
29
118
91
150
16
152
31
9
198
228
30
113
204
61
71
63
170
94
195
22
203
39
199
178
134
185
101
219
168
38
200
103
225
213
23
155
68
81
74
231
146
184
100
164
96
93
95
144
88
154
177
67
70
161
132
86
218
160
79
72
90
179
115
62
175
75
125
212
130
165
145
166
206
135
205
51
201
186
99
190
151
172
216
167
133
176
220

> <PUBCHEM_MMFF94_PARTIAL_CHARGES>
16
1 -0.43
11 0.2
12 0.66
13 -0.14
14 -0.15
15 -0.15
16 -0.15
17 -0.15
18 -0.15
2 -0.57
38 0.15
39 0.15
40 0.15
41 0.15
42 0.15
9 0.28

> <PUBCHEM_EFFECTIVE_ROTOR_COUNT>
10

> <PUBCHEM_PHARMACOPHORE_FEATURES>
5
1 10 hydrophobe
1 2 acceptor
3 3 5 7 hydrophobe
3 4 6 8 hydrophobe
6 13 14 15 16 17 18 rings

> <PUBCHEM_HEAVY_ATOM_COUNT>
18

> <PUBCHEM_ATOM_DEF_STEREO_COUNT>
0

> <PUBCHEM_ATOM_UDEF_STEREO_COUNT>
0

> <PUBCHEM_BOND_DEF_STEREO_COUNT>
0

> <PUBCHEM_BOND_UDEF_STEREO_COUNT>
0

> <PUBCHEM_ISOTOPIC_ATOM_COUNT>
0

> <PUBCHEM_COMPONENT_COUNT>
1

> <PUBCHEM_CACTVS_TAUTO_COUNT>
1

> <PUBCHEM_CONFORMER_ID>
0000EE7A00000001

> <PUBCHEM_MMFF94_ENERGY>
18.5504

> <PUBCHEM_FEATURE_SELFOVERLAP>
25.385

> <PUBCHEM_SHAPE_FINGERPRINT>
10299344 5 18113899360268222930
10968037 39 16008748013185011794
11315181 36 11314309438927704071
12091667 2 18334012796345518469
13288520 33 18040996263674737535
13533116 47 17749942277122441210
13885169 127 18341896264541346024
14123256 10 15791729702941090906
14251764 18 17313100848376846106
14251764 46 18113899359919991791
14933364 13 18343864420203649200
15419008 47 17632570535912698264
15510794 2 17632300068435578151
15716309 27 17676486146663314607
17093844 174 16988841692391560975
17834076 25 18113336409876899680
18006028 8 16225764121344924406
21150785 3 16081087082869582838
21315763 28 18259984886150552828
220451 1 18260821601482630146
22224240 67 17312820494545030802
23035841 295 18260546731738079770
23402539 116 17675920993913903805
23521765 1 18341894095851665932
23536379 177 18411418397513179483
23559900 14 14836110079038462955
28498 318 15913332373654068108
33684 2 18410855460128161798
4325135 7 17385439925364597999
57583515 80 11743838071133282893
59755656 520 18334288799054690638
8209 1 13190339067761381750

> <PUBCHEM_SHAPE_MULTIPOLES>
358.69
27.67
0.94
0.87
48.82
0
-0.01
0.49
-1.55
-1.83
0
-0.16
0
-0.09

> <PUBCHEM_SHAPE_SELFOVERLAP>
702.902

> <PUBCHEM_SHAPE_VOLUME>
215.2

> <PUBCHEM_COORDINATE_TYPE>
2
5
10

$$$$
