61052
  -OEChem-11232109263D

 30 30  0     0  0  0  0  0  0999 V2000
    2.4724    0.3569   -0.0451 O   0  0  0  0  0  0  0  0  0  0  0  0
    4.1351   -1.2295    0.1600 O   0  0  0  0  0  0  0  0  0  0  0  0
   -1.0106   -1.0559    0.2007 C   0  0  0  0  0  0  0  0  0  0  0  0
    0.1004   -0.0212    0.0302 C   0  0  0  0  0  0  0  0  0  0  0  0
   -2.3771   -0.4314    0.0812 C   0  0  0  0  0  0  0  0  0  0  0  0
    1.4790   -0.6622    0.1064 C   0  0  0  0  0  0  0  0  0  0  0  0
   -3.0047    0.0580    1.2173 C   0  0  0  0  0  0  0  0  0  0  0  0
   -2.9857   -0.3554   -1.1631 C   0  0  0  0  0  0  0  0  0  0  0  0
   -4.2692    0.6362    1.1069 C   0  0  0  0  0  0  0  0  0  0  0  0
   -4.2502    0.2228   -1.2734 C   0  0  0  0  0  0  0  0  0  0  0  0
    4.6844    1.1152   -0.1727 C   0  0  0  0  0  0  0  0  0  0  0  0
    3.7683   -0.0732    0.0024 C   0  0  0  0  0  0  0  0  0  0  0  0
   -4.8919    0.7187   -0.1384 C   0  0  0  0  0  0  0  0  0  0  0  0
    6.1498    0.7211   -0.1126 C   0  0  0  0  0  0  0  0  0  0  0  0
   -0.9052   -1.8501   -0.5497 H   0  0  0  0  0  0  0  0  0  0  0  0
   -0.9168   -1.5531    1.1748 H   0  0  0  0  0  0  0  0  0  0  0  0
    0.0195    0.7603    0.7970 H   0  0  0  0  0  0  0  0  0  0  0  0
   -0.0015    0.5007   -0.9302 H   0  0  0  0  0  0  0  0  0  0  0  0
    1.6124   -1.1544    1.0768 H   0  0  0  0  0  0  0  0  0  0  0  0
    1.5954   -1.4024   -0.6940 H   0  0  0  0  0  0  0  0  0  0  0  0
   -2.5271    0.0002    2.1913 H   0  0  0  0  0  0  0  0  0  0  0  0
   -2.4932   -0.7368   -2.0530 H   0  0  0  0  0  0  0  0  0  0  0  0
   -4.7688    1.0228    1.9904 H   0  0  0  0  0  0  0  0  0  0  0  0
   -4.7350    0.2877   -2.2431 H   0  0  0  0  0  0  0  0  0  0  0  0
    4.4721    1.5764   -1.1430 H   0  0  0  0  0  0  0  0  0  0  0  0
    4.4713    1.8375    0.6225 H   0  0  0  0  0  0  0  0  0  0  0  0
   -5.8764    1.1692   -0.2245 H   0  0  0  0  0  0  0  0  0  0  0  0
    6.3963    0.0021   -0.9011 H   0  0  0  0  0  0  0  0  0  0  0  0
    6.7870    1.6014   -0.2409 H   0  0  0  0  0  0  0  0  0  0  0  0
    6.3936    0.2590    0.8497 H   0  0  0  0  0  0  0  0  0  0  0  0
  1  6  1  0  0  0  0
  1 12  1  0  0  0  0
  2 12  2  0  0  0  0
  3  4  1  0  0  0  0
  3  5  1  0  0  0  0
  3 15  1  0  0  0  0
  3 16  1  0  0  0  0
  4  6  1  0  0  0  0
  4 17  1  0  0  0  0
  4 18  1  0  0  0  0
  5  7  2  0  0  0  0
  5  8  1  0  0  0  0
  6 19  1  0  0  0  0
  6 20  1  0  0  0  0
  7  9  1  0  0  0  0
  7 21  1  0  0  0  0
  8 10  2  0  0  0  0
  8 22  1  0  0  0  0
  9 13  2  0  0  0  0
  9 23  1  0  0  0  0
 10 13  1  0  0  0  0
 10 24  1  0  0  0  0
 11 12  1  0  0  0  0
 11 14  1  0  0  0  0
 11 25  1  0  0  0  0
 11 26  1  0  0  0  0
 13 27  1  0  0  0  0
 14 28  1  0  0  0  0
 14 29  1  0  0  0  0
 14 30  1  0  0  0  0
M  END
> <PUBCHEM_COMPOUND_CID>
61052

> <PUBCHEM_CONFORMER_RMSD>
0.6

> <PUBCHEM_CONFORMER_DIVERSEORDER>
1
208
6
191
125
92
209
56
164
204
154
139
70
144
210
224
123
182
122
161
221
131
177
129
220
3
173
127
135
197
20
31
211
137
100
52
190
175
136
188
69
66
128
165
99
72
168
65
71
26
203
130
176
152
85
193
97
133
88
98
141
145
8
67
205
115
109
58
198
206
63
74
180
39
2
214
207
32
19
57
183
138
174
38
30
149
184
84
73
36
192
45
43
83
75
199
195
23
181
79
101
21
146
148
61
216
53
118
64
202
34
162
5
93
77
155
132
90
50
4
22
171
200
112
86
111
11
126
143
94
40
124
76
158
55
14
113
54
59
102
27
78
156
167
24
166
29
15
170
105
187
48
18
194
46
189
179
116
147
186
213
49
82
7
196
81
121
223
150
12
151
160
80
62
120
169
215
185
110
13
47
17
218
159
10
117
142
140
103
172
107
95
44
37
16
51
222
219
153
163
9
178
201
106
25
33
212
119
68
41
157
35
104
114
60
108
217
134
42
96
28
87
89
91

> <PUBCHEM_MMFF94_PARTIAL_CHARGES>
17
1 -0.43
10 -0.15
11 0.06
12 0.66
13 -0.15
2 -0.57
21 0.15
22 0.15
23 0.15
24 0.15
27 0.15
3 0.14
5 -0.14
6 0.28
7 -0.15
8 -0.15
9 -0.15

> <PUBCHEM_EFFECTIVE_ROTOR_COUNT>
6

> <PUBCHEM_PHARMACOPHORE_FEATURES>
3
1 14 hydrophobe
1 2 acceptor
6 5 7 8 9 10 13 rings

> <PUBCHEM_HEAVY_ATOM_COUNT>
14

> <PUBCHEM_ATOM_DEF_STEREO_COUNT>
0

> <PUBCHEM_ATOM_UDEF_STEREO_COUNT>
0

> <PUBCHEM_BOND_DEF_STEREO_COUNT>
0

> <PUBCHEM_BOND_UDEF_STEREO_COUNT>
0

> <PUBCHEM_ISOTOPIC_ATOM_COUNT>
0

> <PUBCHEM_COMPONENT_COUNT>
1

> <PUBCHEM_CACTVS_TAUTO_COUNT>
1

> <PUBCHEM_CONFORMER_ID>
0000EE7C00000001

> <PUBCHEM_MMFF94_ENERGY>
20.7203

> <PUBCHEM_FEATURE_SELFOVERLAP>
15.223

> <PUBCHEM_SHAPE_FINGERPRINT>
10014705 185 18260826037714075543
10680689 15 17312823788167891491
10912923 1 18131630075792386170
11089746 13 17917709132822142208
11315181 36 14045743737755855442
12596602 18 14490190531559986180
13214271 11 16732699459105332439
13288520 33 14548735127903043069
13675066 3 17168147840455819162
1420 363 11600006565800367004
14251718 22 15554446323270036600
14528608 73 17417808483024940448
15242439 84 14405186161997120346
15501527 16 17894914066012552796
15716309 27 11097850800881039420
17834072 33 17346875676143748072
17834076 25 18272370880046797044
17870717 6 14836128771094714429
19489759 90 15913610557683497011
200 152 10447929464390417551
20281389 69 18040712584937108132
20300324 65 17060619997390516161
20325693 3 16200433568269479845
20432913 95 8574437538447926604
20645477 56 17748824137546320502
20645477 70 18337107870139054734
20828058 44 14345793855068077320
23402539 116 17346598564774805840
23402655 69 17846500313824925482
23559900 14 14764336154779432650
2916195 48 17676204719052881804
300161 21 18202559584127742746
351380 3 8286204942072468352
42 15 13334735730233758018
42788 4 18407478868825681408
49783359 22 12612749133700515368
542803 24 18202565072615873152
57265010 4 15213021540270197609
573450 72 16988275374688199703
5924683 9 16951135104747373923

> <PUBCHEM_SHAPE_MULTIPOLES>
276.37
13.81
1.04
1.03
13.98
0.06
0.01
1.74
-4.05
-1.19
-0.02
0.23
-0.07
-0.81

> <PUBCHEM_SHAPE_SELFOVERLAP>
552.341

> <PUBCHEM_SHAPE_VOLUME>
163.3

> <PUBCHEM_COORDINATE_TYPE>
2
5
10

$$$$
