61096
  -OEChem-11232109143D

 35 34  0     0  0  0  0  0  0999 V2000
   -2.7555   -0.4551   -0.0052 O   0  0  0  0  0  0  0  0  0  0  0  0
   -4.1798    1.3599    0.0172 O   0  0  0  0  0  0  0  0  0  0  0  0
    2.1619   -0.3941   -0.0852 C   0  0  0  0  0  0  0  0  0  0  0  0
    3.4497    0.4342   -0.0590 C   0  0  0  0  0  0  0  0  0  0  0  0
    0.8905    0.4556   -0.0260 C   0  0  0  0  0  0  0  0  0  0  0  0
    4.7211   -0.4171   -0.0438 C   0  0  0  0  0  0  0  0  0  0  0  0
   -0.3611   -0.4208   -0.0315 C   0  0  0  0  0  0  0  0  0  0  0  0
    5.9717    0.4578    0.0555 C   0  0  0  0  0  0  0  0  0  0  0  0
   -1.6327    0.4157   -0.0144 C   0  0  0  0  0  0  0  0  0  0  0  0
    7.2370   -0.3832    0.1095 C   0  0  0  0  0  0  0  0  0  0  0  0
   -3.9841    0.1524    0.0105 C   0  0  0  0  0  0  0  0  0  0  0  0
   -5.0630   -0.9050    0.0178 C   0  0  0  0  0  0  0  0  0  0  0  0
   -6.4557   -0.3004    0.0545 C   0  0  0  0  0  0  0  0  0  0  0  0
    2.1492   -1.0065   -0.9952 H   0  0  0  0  0  0  0  0  0  0  0  0
    2.1679   -1.0891    0.7637 H   0  0  0  0  0  0  0  0  0  0  0  0
    3.4380    1.0778    0.8297 H   0  0  0  0  0  0  0  0  0  0  0  0
    3.4675    1.0998   -0.9309 H   0  0  0  0  0  0  0  0  0  0  0  0
    0.8690    1.1381   -0.8840 H   0  0  0  0  0  0  0  0  0  0  0  0
    0.9032    1.0738    0.8797 H   0  0  0  0  0  0  0  0  0  0  0  0
    4.6880   -1.1071    0.8081 H   0  0  0  0  0  0  0  0  0  0  0  0
    4.7651   -1.0279   -0.9534 H   0  0  0  0  0  0  0  0  0  0  0  0
   -0.3674   -1.0697   -0.9163 H   0  0  0  0  0  0  0  0  0  0  0  0
   -0.3564   -1.0947    0.8344 H   0  0  0  0  0  0  0  0  0  0  0  0
    5.9194    1.0831    0.9544 H   0  0  0  0  0  0  0  0  0  0  0  0
    6.0228    1.1326   -0.8070 H   0  0  0  0  0  0  0  0  0  0  0  0
   -1.6734    1.0547   -0.9044 H   0  0  0  0  0  0  0  0  0  0  0  0
   -1.6540    1.0470    0.8818 H   0  0  0  0  0  0  0  0  0  0  0  0
    7.3367   -0.9997   -0.7895 H   0  0  0  0  0  0  0  0  0  0  0  0
    7.2314   -1.0450    0.9815 H   0  0  0  0  0  0  0  0  0  0  0  0
    8.1184    0.2620    0.1785 H   0  0  0  0  0  0  0  0  0  0  0  0
   -4.9555   -1.5153   -0.8850 H   0  0  0  0  0  0  0  0  0  0  0  0
   -4.9204   -1.5393    0.8990 H   0  0  0  0  0  0  0  0  0  0  0  0
   -6.6311    0.3365   -0.8189 H   0  0  0  0  0  0  0  0  0  0  0  0
   -7.2139   -1.0894    0.0605 H   0  0  0  0  0  0  0  0  0  0  0  0
   -6.5940    0.3145    0.9501 H   0  0  0  0  0  0  0  0  0  0  0  0
  1  9  1  0  0  0  0
  1 11  1  0  0  0  0
  2 11  2  0  0  0  0
  3  4  1  0  0  0  0
  3  5  1  0  0  0  0
  3 14  1  0  0  0  0
  3 15  1  0  0  0  0
  4  6  1  0  0  0  0
  4 16  1  0  0  0  0
  4 17  1  0  0  0  0
  5  7  1  0  0  0  0
  5 18  1  0  0  0  0
  5 19  1  0  0  0  0
  6  8  1  0  0  0  0
  6 20  1  0  0  0  0
  6 21  1  0  0  0  0
  7  9  1  0  0  0  0
  7 22  1  0  0  0  0
  7 23  1  0  0  0  0
  8 10  1  0  0  0  0
  8 24  1  0  0  0  0
  8 25  1  0  0  0  0
  9 26  1  0  0  0  0
  9 27  1  0  0  0  0
 10 28  1  0  0  0  0
 10 29  1  0  0  0  0
 10 30  1  0  0  0  0
 11 12  1  0  0  0  0
 12 13  1  0  0  0  0
 12 31  1  0  0  0  0
 12 32  1  0  0  0  0
 13 33  1  0  0  0  0
 13 34  1  0  0  0  0
 13 35  1  0  0  0  0
M  END
> <PUBCHEM_COMPOUND_CID>
61096

> <PUBCHEM_CONFORMER_RMSD>
1

> <PUBCHEM_CONFORMER_DIVERSEORDER>
1
456
6
82
548
14
293
520
563
516
154
85
346
463
115
427
41
50
54
7
337
3
409
2
141
66
217
317
541
31
345
269
206
59
307
21
551
250
351
457
27
165
521
556
12
35
90
17
47
560
65
68
69
45
343
574
428
72
134
8
24
117
273
332
324
96
387
504
132
11
214
242
184
282
469
362
300
374
446
138
596
478
229
552
241

> <PUBCHEM_MMFF94_PARTIAL_CHARGES>
5
1 -0.43
11 0.66
12 0.06
2 -0.57
9 0.28

> <PUBCHEM_EFFECTIVE_ROTOR_COUNT>
9

> <PUBCHEM_PHARMACOPHORE_FEATURES>
5
1 10 hydrophobe
1 13 hydrophobe
1 2 acceptor
3 3 5 7 hydrophobe
3 4 6 8 hydrophobe

> <PUBCHEM_HEAVY_ATOM_COUNT>
13

> <PUBCHEM_ATOM_DEF_STEREO_COUNT>
0

> <PUBCHEM_ATOM_UDEF_STEREO_COUNT>
0

> <PUBCHEM_BOND_DEF_STEREO_COUNT>
0

> <PUBCHEM_BOND_UDEF_STEREO_COUNT>
0

> <PUBCHEM_ISOTOPIC_ATOM_COUNT>
0

> <PUBCHEM_COMPONENT_COUNT>
1

> <PUBCHEM_CACTVS_TAUTO_COUNT>
1

> <PUBCHEM_CONFORMER_ID>
0000EEA800000001

> <PUBCHEM_MMFF94_ENERGY>
-0.0631

> <PUBCHEM_FEATURE_SELFOVERLAP>
25.386

> <PUBCHEM_SHAPE_FINGERPRINT>
11315181 36 17822015328452332489
12091667 2 18411418415009559623
13533116 47 16877931708425008256
14123238 8 17967813846859448790
1420 363 17846784013737178806
14251718 22 18412263934755451514
14251764 46 17989205949606036990
15242439 84 11674880004684840605
15716309 27 18343301478644892798
17834072 33 18411138073429585044
17834072 8 11386365950058989975
17834076 25 18333731321231716242
20281389 69 18335136501561483308
20645477 70 18130511816817350142
21130983 4 12679459807520285882
220451 1 13614521853068939996
22224240 67 16487249980730986454
23402539 116 18410852166009714796
23521765 1 18341895194714570630
33684 2 18335137592598870243
42788 4 18410855464961244748
57583515 80 16225764116986724509
8209 1 18410573989446424943

> <PUBCHEM_SHAPE_MULTIPOLES>
255.8
19.21
0.91
0.6
8.57
0.09
0
-1.89
0.7
-0.52
0
0.06
-0.01
0

> <PUBCHEM_SHAPE_SELFOVERLAP>
462.902

> <PUBCHEM_SHAPE_VOLUME>
164.3

> <PUBCHEM_COORDINATE_TYPE>
2
5
10

$$$$
