6112709
  -OEChem-11232109453D

 34 33  0     0  0  0  0  0  0999 V2000
    2.3333    0.2175   -0.6103 O   0  0  0  0  0  0  0  0  0  0  0  0
    1.6177    1.5343    1.1478 O   0  0  0  0  0  0  0  0  0  0  0  0
    2.0362   -0.9606    0.1427 C   0  0  0  0  0  0  0  0  0  0  0  0
    0.5251   -0.9702    0.4520 C   0  0  0  0  0  0  0  0  0  0  0  0
   -0.3760   -0.9895   -0.7895 C   0  0  0  0  0  0  0  0  0  0  0  0
    2.3915   -2.1740   -0.7228 C   0  0  0  0  0  0  0  0  0  0  0  0
    2.8927   -0.9544    1.4108 C   0  0  0  0  0  0  0  0  0  0  0  0
   -1.8279   -1.0788   -0.4036 C   0  0  0  0  0  0  0  0  0  0  0  0
   -2.6862   -0.0638   -0.1720 C   0  0  0  0  0  0  0  0  0  0  0  0
    2.0729    1.3989    0.0201 C   0  0  0  0  0  0  0  0  0  0  0  0
   -2.3191    1.3894   -0.3233 C   0  0  0  0  0  0  0  0  0  0  0  0
    2.4313    2.5401   -0.8828 C   0  0  0  0  0  0  0  0  0  0  0  0
   -4.0556   -0.3802    0.2308 C   0  0  0  0  0  0  0  0  0  0  0  0
   -5.0359    0.4914    0.5002 C   0  0  0  0  0  0  0  0  0  0  0  0
    0.2078   -0.1532    1.1046 H   0  0  0  0  0  0  0  0  0  0  0  0
    0.3134   -1.8778    1.0372 H   0  0  0  0  0  0  0  0  0  0  0  0
   -0.1893   -0.1160   -1.4216 H   0  0  0  0  0  0  0  0  0  0  0  0
   -0.1639   -1.8631   -1.4153 H   0  0  0  0  0  0  0  0  0  0  0  0
    2.0522   -3.1121   -0.2718 H   0  0  0  0  0  0  0  0  0  0  0  0
    3.4785   -2.2378   -0.8556 H   0  0  0  0  0  0  0  0  0  0  0  0
    1.9833   -2.0912   -1.7353 H   0  0  0  0  0  0  0  0  0  0  0  0
    3.9263   -0.6654    1.1881 H   0  0  0  0  0  0  0  0  0  0  0  0
    2.5273   -0.2804    2.1897 H   0  0  0  0  0  0  0  0  0  0  0  0
    2.9108   -1.9519    1.8654 H   0  0  0  0  0  0  0  0  0  0  0  0
   -2.1797   -2.1018   -0.2675 H   0  0  0  0  0  0  0  0  0  0  0  0
   -2.9209    1.8593   -1.1088 H   0  0  0  0  0  0  0  0  0  0  0  0
   -2.4838    1.9280    0.6166 H   0  0  0  0  0  0  0  0  0  0  0  0
   -1.2698    1.5443   -0.5866 H   0  0  0  0  0  0  0  0  0  0  0  0
    1.8262    2.4964   -1.7918 H   0  0  0  0  0  0  0  0  0  0  0  0
    3.4961    2.5006   -1.1255 H   0  0  0  0  0  0  0  0  0  0  0  0
    2.2251    3.4850   -0.3720 H   0  0  0  0  0  0  0  0  0  0  0  0
   -4.3024   -1.4369    0.3230 H   0  0  0  0  0  0  0  0  0  0  0  0
   -6.0165    0.1293    0.7922 H   0  0  0  0  0  0  0  0  0  0  0  0
   -4.9038    1.5655    0.4412 H   0  0  0  0  0  0  0  0  0  0  0  0
  1  3  1  0  0  0  0
  1 10  1  0  0  0  0
  2 10  2  0  0  0  0
  3  4  1  0  0  0  0
  3  6  1  0  0  0  0
  3  7  1  0  0  0  0
  4  5  1  0  0  0  0
  4 15  1  0  0  0  0
  4 16  1  0  0  0  0
  5  8  1  0  0  0  0
  5 17  1  0  0  0  0
  5 18  1  0  0  0  0
  6 19  1  0  0  0  0
  6 20  1  0  0  0  0
  6 21  1  0  0  0  0
  7 22  1  0  0  0  0
  7 23  1  0  0  0  0
  7 24  1  0  0  0  0
  8  9  2  0  0  0  0
  8 25  1  0  0  0  0
  9 11  1  0  0  0  0
  9 13  1  0  0  0  0
 10 12  1  0  0  0  0
 11 26  1  0  0  0  0
 11 27  1  0  0  0  0
 11 28  1  0  0  0  0
 12 29  1  0  0  0  0
 12 30  1  0  0  0  0
 12 31  1  0  0  0  0
 13 14  2  0  0  0  0
 13 32  1  0  0  0  0
 14 33  1  0  0  0  0
 14 34  1  0  0  0  0
M  END
> <PUBCHEM_COMPOUND_CID>
6112709

> <PUBCHEM_CONFORMER_RMSD>
0.6

> <PUBCHEM_CONFORMER_DIVERSEORDER>
4
49
40
109
28
111
45
18
34
29
98
105
93
55
66
43
50
89
113
75
21
112
35
6
101
23
79
9
62
91
26
58
103
70
76
25
115
99
10
84
107
54
108
36
77
13
102
104
51
17
71
5
86
47
64
94
8
12
83
87
65
114
110
38
116
73
1
68
24
96
95
72
53
61
74
14
106
46
39
11
82
80
90
63
3
92
81
2
52
100
22
15
37
27
19
97
44
56
60
33
85
88
67
78
69
48
7
16
20
32
30
41
31
59
42
57

> <PUBCHEM_MMFF94_PARTIAL_CHARGES>
15
1 -0.43
10 0.66
11 0.14
12 0.06
13 -0.15
14 -0.3
2 -0.57
25 0.15
3 0.28
32 0.15
33 0.15
34 0.15
5 0.14
8 -0.29
9 -0.14

> <PUBCHEM_EFFECTIVE_ROTOR_COUNT>
6

> <PUBCHEM_PHARMACOPHORE_FEATURES>
4
1 11 hydrophobe
1 14 hydrophobe
1 2 acceptor
3 3 6 7 hydrophobe

> <PUBCHEM_HEAVY_ATOM_COUNT>
14

> <PUBCHEM_ATOM_DEF_STEREO_COUNT>
0

> <PUBCHEM_ATOM_UDEF_STEREO_COUNT>
0

> <PUBCHEM_BOND_DEF_STEREO_COUNT>
1

> <PUBCHEM_BOND_UDEF_STEREO_COUNT>
0

> <PUBCHEM_ISOTOPIC_ATOM_COUNT>
0

> <PUBCHEM_COMPONENT_COUNT>
1

> <PUBCHEM_CACTVS_TAUTO_COUNT>
1

> <PUBCHEM_CONFORMER_ID>
005D45C500000004

> <PUBCHEM_MMFF94_ENERGY>
30.8031

> <PUBCHEM_FEATURE_SELFOVERLAP>
20.299

> <PUBCHEM_SHAPE_FINGERPRINT>
10366900 7 17749683887304951635
10382601 240 18041555953215718276
10980938 120 18340204193212906493
12251169 10 18335976506511260347
12617007 42 18200048230792566446
12696612 119 18334564750887295572
12932764 1 17749101180333403775
13380535 21 18268435796576922327
14344429 50 18187082836890900814
15775835 57 18270684289133855877
17041 49 18261380101591314122
17802600 8 18337945706330281157
18186145 218 18259982661241474783
20279233 1 9583224051048220311
20339313 130 18200599073022417070
20559304 39 18341332210469995722
20671657 1 18202283632009482846
21501502 16 18267295611492997031
21503847 285 18337401439479368321
21524375 3 17902505223145128908
22485316 2 10665236968885819219
2255824 54 18333450941255797538
22854114 111 18408602582441202571
23380061 81 18341619213206909299
23557571 272 15840693244474364447
2748010 2 17837478666321566438
31174 14 17894622660607158861
3286 77 17385716955023692803
44154327 71 18336552728172232381
449060 62 18339930406459861741
5374978 207 18260829285379140961
7364860 26 18343302569951610430

> <PUBCHEM_SHAPE_MULTIPOLES>
276.37
7.47
2.25
1.05
9.6
0.97
-0.18
0.73
-1.21
-2.38
0.49
-0.65
-0.05
-0.32

> <PUBCHEM_SHAPE_SELFOVERLAP>
529.229

> <PUBCHEM_SHAPE_VOLUME>
169.4

> <PUBCHEM_COORDINATE_TYPE>
2
5
10

$$$$
