61129
  -OEChem-11232109273D

 44 46  0     1  0  0  0  0  0999 V2000
    3.1245   -0.4947   -0.1221 O   0  0  0  0  0  0  0  0  0  0  0  0
    4.0204    1.2771   -1.2664 O   0  0  0  0  0  0  0  0  0  0  0  0
   -0.4271    0.4738    0.7401 C   0  0  1  0  0  0  0  0  0  0  0  0
   -1.0200   -0.3756   -0.4408 C   0  0  2  0  0  0  0  0  0  0  0  0
    1.1396    0.5038    0.6347 C   0  0  1  0  0  0  0  0  0  0  0  0
   -2.5830   -0.3374   -0.5937 C   0  0  0  0  0  0  0  0  0  0  0  0
    1.8230   -0.8523    0.3993 C   0  0  1  0  0  0  0  0  0  0  0  0
   -0.3995   -1.7884   -0.4804 C   0  0  0  0  0  0  0  0  0  0  0  0
   -0.9957    1.9163    0.6527 C   0  0  0  0  0  0  0  0  0  0  0  0
    1.1166   -1.7164   -0.6564 C   0  0  0  0  0  0  0  0  0  0  0  0
   -3.0614    1.1380   -0.5825 C   0  0  0  0  0  0  0  0  0  0  0  0
   -2.5219    1.9705    0.5751 C   0  0  0  0  0  0  0  0  0  0  0  0
    1.7258    1.3467   -0.4982 C   0  0  0  0  0  0  0  0  0  0  0  0
   -0.7795   -0.0857    2.1453 C   0  0  0  0  0  0  0  0  0  0  0  0
   -3.3445   -1.1554    0.4652 C   0  0  0  0  0  0  0  0  0  0  0  0
   -2.9911   -0.9244   -1.9714 C   0  0  0  0  0  0  0  0  0  0  0  0
    2.0864   -1.6461    1.6800 C   0  0  0  0  0  0  0  0  0  0  0  0
    3.0875    0.7503   -0.6807 C   0  0  0  0  0  0  0  0  0  0  0  0
   -0.6618    0.1137   -1.3595 H   0  0  0  0  0  0  0  0  0  0  0  0
    1.5429    0.9440    1.5598 H   0  0  0  0  0  0  0  0  0  0  0  0
   -0.7967   -2.3607   -1.3245 H   0  0  0  0  0  0  0  0  0  0  0  0
   -0.6453   -2.3625    0.4174 H   0  0  0  0  0  0  0  0  0  0  0  0
   -0.6104    2.4221   -0.2407 H   0  0  0  0  0  0  0  0  0  0  0  0
   -0.6554    2.5084    1.5116 H   0  0  0  0  0  0  0  0  0  0  0  0
    1.5362   -2.7307   -0.6557 H   0  0  0  0  0  0  0  0  0  0  0  0
    1.3335   -1.3283   -1.6611 H   0  0  0  0  0  0  0  0  0  0  0  0
   -4.1581    1.1808   -0.5722 H   0  0  0  0  0  0  0  0  0  0  0  0
   -2.7492    1.6242   -1.5173 H   0  0  0  0  0  0  0  0  0  0  0  0
   -2.9783    1.6499    1.5162 H   0  0  0  0  0  0  0  0  0  0  0  0
   -2.8312    3.0138    0.4359 H   0  0  0  0  0  0  0  0  0  0  0  0
    1.8146    2.3964   -0.2046 H   0  0  0  0  0  0  0  0  0  0  0  0
    1.1820    1.2604   -1.4414 H   0  0  0  0  0  0  0  0  0  0  0  0
   -1.7659    0.2202    2.4958 H   0  0  0  0  0  0  0  0  0  0  0  0
   -0.7570   -1.1749    2.1900 H   0  0  0  0  0  0  0  0  0  0  0  0
   -0.0823    0.2886    2.9046 H   0  0  0  0  0  0  0  0  0  0  0  0
   -4.4134   -1.2015    0.2220 H   0  0  0  0  0  0  0  0  0  0  0  0
   -2.9847   -2.1880    0.5143 H   0  0  0  0  0  0  0  0  0  0  0  0
   -3.2835   -0.7280    1.4649 H   0  0  0  0  0  0  0  0  0  0  0  0
   -2.4292   -0.4566   -2.7875 H   0  0  0  0  0  0  0  0  0  0  0  0
   -2.8246   -2.0050   -2.0223 H   0  0  0  0  0  0  0  0  0  0  0  0
   -4.0566   -0.7566   -2.1696 H   0  0  0  0  0  0  0  0  0  0  0  0
    1.1818   -2.0788    2.1094 H   0  0  0  0  0  0  0  0  0  0  0  0
    2.7854   -2.4682    1.4836 H   0  0  0  0  0  0  0  0  0  0  0  0
    2.5662   -1.0175    2.4386 H   0  0  0  0  0  0  0  0  0  0  0  0
  1  7  1  0  0  0  0
  1 18  1  0  0  0  0
  2 18  2  0  0  0  0
  3  4  1  0  0  0  0
  3  5  1  0  0  0  0
  3  9  1  0  0  0  0
  3 14  1  0  0  0  0
  4  6  1  0  0  0  0
  4  8  1  0  0  0  0
  4 19  1  0  0  0  0
  5  7  1  0  0  0  0
  5 13  1  0  0  0  0
  5 20  1  0  0  0  0
  6 11  1  0  0  0  0
  6 15  1  0  0  0  0
  6 16  1  0  0  0  0
  7 10  1  0  0  0  0
  7 17  1  0  0  0  0
  8 10  1  0  0  0  0
  8 21  1  0  0  0  0
  8 22  1  0  0  0  0
  9 12  1  0  0  0  0
  9 23  1  0  0  0  0
  9 24  1  0  0  0  0
 10 25  1  0  0  0  0
 10 26  1  0  0  0  0
 11 12  1  0  0  0  0
 11 27  1  0  0  0  0
 11 28  1  0  0  0  0
 12 29  1  0  0  0  0
 12 30  1  0  0  0  0
 13 18  1  0  0  0  0
 13 31  1  0  0  0  0
 13 32  1  0  0  0  0
 14 33  1  0  0  0  0
 14 34  1  0  0  0  0
 14 35  1  0  0  0  0
 15 36  1  0  0  0  0
 15 37  1  0  0  0  0
 15 38  1  0  0  0  0
 16 39  1  0  0  0  0
 16 40  1  0  0  0  0
 16 41  1  0  0  0  0
 17 42  1  0  0  0  0
 17 43  1  0  0  0  0
 17 44  1  0  0  0  0
M  END
> <PUBCHEM_COMPOUND_CID>
61129

> <PUBCHEM_CONFORMER_RMSD>
0.6

> <PUBCHEM_CONFORMER_DIVERSEORDER>
1
31
18
3
16
20
24
8
21
15
12
28
27
23
4
14
11
13
7
22
32
30
25
19
10
33
17
5
26
29
2
6
9

> <PUBCHEM_MMFF94_PARTIAL_CHARGES>
5
1 -0.43
13 0.06
18 0.66
2 -0.57
7 0.28

> <PUBCHEM_EFFECTIVE_ROTOR_COUNT>
1.6

> <PUBCHEM_PHARMACOPHORE_FEATURES>
5
1 2 acceptor
3 6 15 16 hydrophobe
5 1 5 7 13 18 rings
6 3 4 5 7 8 10 rings
6 3 4 6 9 11 12 rings

> <PUBCHEM_HEAVY_ATOM_COUNT>
18

> <PUBCHEM_ATOM_DEF_STEREO_COUNT>
0

> <PUBCHEM_ATOM_UDEF_STEREO_COUNT>
4

> <PUBCHEM_BOND_DEF_STEREO_COUNT>
0

> <PUBCHEM_BOND_UDEF_STEREO_COUNT>
0

> <PUBCHEM_ISOTOPIC_ATOM_COUNT>
0

> <PUBCHEM_COMPONENT_COUNT>
1

> <PUBCHEM_CACTVS_TAUTO_COUNT>
2

> <PUBCHEM_CONFORMER_ID>
0000EEC900000001

> <PUBCHEM_MMFF94_ENERGY>
66.0174

> <PUBCHEM_FEATURE_SELFOVERLAP>
25.563

> <PUBCHEM_SHAPE_FINGERPRINT>
10062212 137 18340760438532591595
10863032 1 17676481748511464403
10948715 1 17967817145357447860
11206711 2 18202279212604335829
11578080 2 17905281279325733480
12202030 40 14836112295299435005
12491281 212 18335709307963578617
12553582 1 18058438963029300375
12808571 1 18334016085741899499
13221675 6 18343304781617018711
13299463 15 17988928876754481489
13571099 52 15864056676737103887
14115302 16 17772743871195441329
144361 1 18129951065607063378
14787075 74 17682127908150232163
15775835 57 18409738334950664644
15852999 172 16588303925333636234
16752209 62 17988915640034521021
16945 1 17845924169869185859
17980427 23 18124846033514971096
18186145 218 17458339702290982062
20511035 2 17484515634059035231
20645476 183 18335416876688741975
21501502 16 18336263440491254329
22112679 90 18268420253100671944
2334 1 18341892961320968747
23402539 116 18202280325433479860
23419403 2 16303760375274487273
23493267 7 18410860940643964987
23557571 272 16558166298752505619
23559900 14 17985542248013742910
25 1 17675925391570167284
2748010 2 17623839532565354939
3082319 5 18410852144540211405
353137 74 18410012177717515240
474 4 17749116616271805572
528886 8 18341325604947438137
53812653 8 18342179985421871118
57096353 35 18411134774815593812
77492 1 18337102376347738960
8030462 33 18411688898727174933
81228 2 15625948560619236305
90525 40 18272091556606147839
9981440 41 17688588686621972456

> <PUBCHEM_SHAPE_MULTIPOLES>
358.69
5.57
2.05
1.57
1.01
0.17
0.33
0.6
-1.92
-0.3
-0.01
-0.05
-0.27
-1.12

> <PUBCHEM_SHAPE_SELFOVERLAP>
754.896

> <PUBCHEM_SHAPE_VOLUME>
202.8

> <PUBCHEM_COORDINATE_TYPE>
2
5
10

$$$$
