61159
  -OEChem-11232109003D

 29 30  0     0  0  0  0  0  0999 V2000
    0.4657    0.3878    0.5989 O   0  0  0  0  0  0  0  0  0  0  0  0
   -2.4559   -2.1726   -0.7545 O   0  0  0  0  0  0  0  0  0  0  0  0
    0.0371   -1.1054   -1.1396 O   0  0  0  0  0  0  0  0  0  0  0  0
    2.5620    0.9028   -0.4430 C   0  0  0  0  0  0  0  0  0  0  0  0
    1.8281    0.1280    0.4277 C   0  0  0  0  0  0  0  0  0  0  0  0
   -1.7612    0.0098   -0.0405 C   0  0  0  0  0  0  0  0  0  0  0  0
    3.9205    0.6292   -0.6026 C   0  0  0  0  0  0  0  0  0  0  0  0
    2.3844   -0.9073    1.1471 C   0  0  0  0  0  0  0  0  0  0  0  0
    1.9471    2.0224   -1.2160 C   0  0  0  0  0  0  0  0  0  0  0  0
   -2.7624   -0.9298   -0.2862 C   0  0  0  0  0  0  0  0  0  0  0  0
   -0.3606   -0.3106   -0.2777 C   0  0  0  0  0  0  0  0  0  0  0  0
    4.5108   -0.4127    0.1125 C   0  0  0  0  0  0  0  0  0  0  0  0
    3.7427   -1.1810    0.9874 C   0  0  0  0  0  0  0  0  0  0  0  0
   -2.0959    1.2762    0.4390 C   0  0  0  0  0  0  0  0  0  0  0  0
   -4.0981   -0.6030   -0.0524 C   0  0  0  0  0  0  0  0  0  0  0  0
   -3.4316    1.6031    0.6728 C   0  0  0  0  0  0  0  0  0  0  0  0
   -4.4327    0.6633    0.4270 C   0  0  0  0  0  0  0  0  0  0  0  0
    4.5322    1.2176   -1.2814 H   0  0  0  0  0  0  0  0  0  0  0  0
    1.7872   -1.5052    1.8285 H   0  0  0  0  0  0  0  0  0  0  0  0
    2.7074    2.6598   -1.6804 H   0  0  0  0  0  0  0  0  0  0  0  0
    1.3073    1.6274   -2.0114 H   0  0  0  0  0  0  0  0  0  0  0  0
    1.3496    2.6641   -0.5597 H   0  0  0  0  0  0  0  0  0  0  0  0
    5.5684   -0.6262   -0.0119 H   0  0  0  0  0  0  0  0  0  0  0  0
   -1.3416    2.0360    0.6262 H   0  0  0  0  0  0  0  0  0  0  0  0
    4.2023   -1.9924    1.5443 H   0  0  0  0  0  0  0  0  0  0  0  0
   -4.8885   -1.3249   -0.2395 H   0  0  0  0  0  0  0  0  0  0  0  0
   -3.6929    2.5902    1.0428 H   0  0  0  0  0  0  0  0  0  0  0  0
   -5.4728    0.9182    0.6082 H   0  0  0  0  0  0  0  0  0  0  0  0
   -3.2769   -2.6826   -0.8634 H   0  0  0  0  0  0  0  0  0  0  0  0
  1  5  1  0  0  0  0
  1 11  1  0  0  0  0
  2 10  1  0  0  0  0
  2 29  1  0  0  0  0
  3 11  2  0  0  0  0
  4  5  1  0  0  0  0
  4  7  2  0  0  0  0
  4  9  1  0  0  0  0
  5  8  2  0  0  0  0
  6 10  1  0  0  0  0
  6 11  1  0  0  0  0
  6 14  2  0  0  0  0
  7 12  1  0  0  0  0
  7 18  1  0  0  0  0
  8 13  1  0  0  0  0
  8 19  1  0  0  0  0
  9 20  1  0  0  0  0
  9 21  1  0  0  0  0
  9 22  1  0  0  0  0
 10 15  2  0  0  0  0
 12 13  2  0  0  0  0
 12 23  1  0  0  0  0
 13 25  1  0  0  0  0
 14 16  1  0  0  0  0
 14 24  1  0  0  0  0
 15 17  1  0  0  0  0
 15 26  1  0  0  0  0
 16 17  2  0  0  0  0
 16 27  1  0  0  0  0
 17 28  1  0  0  0  0
M  END
> <PUBCHEM_COMPOUND_CID>
61159

> <PUBCHEM_CONFORMER_RMSD>
0.6

> <PUBCHEM_CONFORMER_DIVERSEORDER>
1
62
34
11
45
53
57
24
55
8
39
58
6
65
27
10
52
44
51
3
25
17
35
46
37
12
43
4
38
20
49
9
36
33
5
59
40
7
18
56
13
50
42
2
23
60
21
26
63
19
41
14
16
30
28
31
15
32
61
47
66
48
54
22
64
29

> <PUBCHEM_MMFF94_PARTIAL_CHARGES>
26
1 -0.23
10 0.08
11 0.63
12 -0.15
13 -0.15
14 -0.15
15 -0.15
16 -0.15
17 -0.15
18 0.15
19 0.15
2 -0.53
23 0.15
24 0.15
25 0.15
26 0.15
27 0.15
28 0.15
29 0.45
3 -0.57
4 -0.14
5 0.08
6 0.09
7 -0.15
8 -0.15
9 0.14

> <PUBCHEM_EFFECTIVE_ROTOR_COUNT>
3

> <PUBCHEM_PHARMACOPHORE_FEATURES>
4
1 2 donor
1 3 acceptor
6 4 5 7 8 12 13 rings
6 6 10 14 15 16 17 rings

> <PUBCHEM_HEAVY_ATOM_COUNT>
17

> <PUBCHEM_ATOM_DEF_STEREO_COUNT>
0

> <PUBCHEM_ATOM_UDEF_STEREO_COUNT>
0

> <PUBCHEM_BOND_DEF_STEREO_COUNT>
0

> <PUBCHEM_BOND_UDEF_STEREO_COUNT>
0

> <PUBCHEM_ISOTOPIC_ATOM_COUNT>
0

> <PUBCHEM_COMPONENT_COUNT>
1

> <PUBCHEM_CACTVS_TAUTO_COUNT>
4

> <PUBCHEM_CONFORMER_ID>
0000EEE700000001

> <PUBCHEM_MMFF94_ENERGY>
56.44

> <PUBCHEM_FEATURE_SELFOVERLAP>
20.297

> <PUBCHEM_SHAPE_FINGERPRINT>
10062212 137 18413106182290190711
10616163 171 18340207491658762135
11471102 20 17676207979159698408
11578080 2 18120621786903430332
11615757 297 17967531285235036649
12107183 9 17687461269625732384
12236239 1 18409449181004672544
12251169 10 18408603639024282389
12346177 29 17203315745856303663
12670546 56 18411130355262681612
13167823 11 18407760339217540962
13538477 17 18340482369470123990
13675066 3 17847057779242493694
13760787 19 18409731772361825538
15375358 24 15913327983226852520
15375462 189 17895187767013938562
15669948 3 18272086153848616703
16752209 62 18130775798392121023
17804303 29 18059853986996185825
1813 80 17677057811527743430
18186145 218 17531241781451764394
19026448 5 18334575754366712946
19050596 39 18335138699993518683
19422 9 18335701671516838706
200 152 18261106392078731817
20233049 118 18060138730448504408
20279233 1 16056881338035496469
20645477 70 16660910098333089418
21267235 1 18408612456413007507
2255824 54 18040437728573214932
22646028 1 18409163316033256689
23048698 100 18113336409834818737
23402539 116 18202272598987624917
23402655 69 18187082836758999692
23463225 33 18410292497295152372
23557571 272 17417823824194609917
23559900 14 17561089090462410804
23598291 2 18335418010517767390
312423 11 18263934391619642543
42 15 18341328916351425170
474 4 17751365207977198140
5104073 3 18410856589725693104
573450 72 18341606006092738611
58051976 100 18409451413891898343
7097593 13 18263916661799862250
77492 1 18408039628235096424
77779 3 18335140894748141592
81228 2 16199051429970505480
8272917 22 18188211987745192850
84936 182 18050012383139670188
9981440 41 17398391318011241944

> <PUBCHEM_SHAPE_MULTIPOLES>
332.24
9.09
1.72
1.03
0.5
0.19
0.03
-0.19
-1.02
0.18
0.31
-0.26
-0.05
-1.52

> <PUBCHEM_SHAPE_SELFOVERLAP>
720.844

> <PUBCHEM_SHAPE_VOLUME>
180

> <PUBCHEM_COORDINATE_TYPE>
2
5
10

$$$$
