61167
  -OEChem-11232108553D

 24 24  0     0  0  0  0  0  0999 V2000
   -0.3469   -0.0619   -0.0395 O   0  0  0  0  0  0  0  0  0  0  0  0
    2.2595    0.7031    0.8123 O   0  0  0  0  0  0  0  0  0  0  0  0
   -1.9239   -1.6878    0.3992 O   0  0  0  0  0  0  0  0  0  0  0  0
   -2.5962    0.5796   -0.1685 C   0  0  0  0  0  0  0  0  0  0  0  0
   -4.0456    0.1138   -0.0542 C   0  0  0  0  0  0  0  0  0  0  0  0
    0.6986   -1.0130    0.1863 C   0  0  0  0  0  0  0  0  0  0  0  0
   -1.6185   -0.5410    0.1025 C   0  0  0  0  0  0  0  0  0  0  0  0
   -5.0189    1.2558   -0.2966 C   0  0  0  0  0  0  0  0  0  0  0  0
    2.0247   -0.3381   -0.0064 C   0  0  0  0  0  0  0  0  0  0  0  0
    3.0505   -0.5753   -0.8583 C   0  0  0  0  0  0  0  0  0  0  0  0
    4.0226    0.4060   -0.5498 C   0  0  0  0  0  0  0  0  0  0  0  0
    3.4941    1.1587    0.4729 C   0  0  0  0  0  0  0  0  0  0  0  0
   -2.4058    1.3794    0.5560 H   0  0  0  0  0  0  0  0  0  0  0  0
   -2.4099    0.9607   -1.1789 H   0  0  0  0  0  0  0  0  0  0  0  0
   -4.2386   -0.6880   -0.7770 H   0  0  0  0  0  0  0  0  0  0  0  0
   -4.2260   -0.3083    0.9418 H   0  0  0  0  0  0  0  0  0  0  0  0
    0.5964   -1.8439   -0.5212 H   0  0  0  0  0  0  0  0  0  0  0  0
    0.6332   -1.3973    1.2108 H   0  0  0  0  0  0  0  0  0  0  0  0
   -6.0502    0.8996   -0.2109 H   0  0  0  0  0  0  0  0  0  0  0  0
   -4.8743    2.0567    0.4356 H   0  0  0  0  0  0  0  0  0  0  0  0
   -4.8871    1.6773   -1.2982 H   0  0  0  0  0  0  0  0  0  0  0  0
    3.1117   -1.3477   -1.6112 H   0  0  0  0  0  0  0  0  0  0  0  0
    4.9877    0.5470   -1.0146 H   0  0  0  0  0  0  0  0  0  0  0  0
    3.8507    2.0074    1.0382 H   0  0  0  0  0  0  0  0  0  0  0  0
  1  6  1  0  0  0  0
  1  7  1  0  0  0  0
  2  9  1  0  0  0  0
  2 12  1  0  0  0  0
  3  7  2  0  0  0  0
  4  5  1  0  0  0  0
  4  7  1  0  0  0  0
  4 13  1  0  0  0  0
  4 14  1  0  0  0  0
  5  8  1  0  0  0  0
  5 15  1  0  0  0  0
  5 16  1  0  0  0  0
  6  9  1  0  0  0  0
  6 17  1  0  0  0  0
  6 18  1  0  0  0  0
  8 19  1  0  0  0  0
  8 20  1  0  0  0  0
  8 21  1  0  0  0  0
  9 10  2  0  0  0  0
 10 11  1  0  0  0  0
 10 22  1  0  0  0  0
 11 12  2  0  0  0  0
 11 23  1  0  0  0  0
 12 24  1  0  0  0  0
M  END
> <PUBCHEM_COMPOUND_CID>
61167

> <PUBCHEM_CONFORMER_RMSD>
0.6

> <PUBCHEM_CONFORMER_DIVERSEORDER>
1
57
69
124
58
123
61
79
62
99
107
49
11
75
68
45
112
10
111
32
100
132
127
2
26
65
74
43
63
71
129
72
59
89
90
125
3
44
50
6
77
7
40
96
9
130
115
110
60
84
13
121
103
46
22
34
5
108
70
23
98
118
109
97
83
104
36
64
20
113
106
14
87
28
27
56
122
119
24
66
8
91
52
16
47
76
105
17
19
93
133
54
78
48
35
51
25
128
21
4
55
85
102
67
12
88
126
80
82
120
41
92
116
95
81
39
117
131
15
31
53
86
38
18
114
29
73
30
33
42
94
37
101

> <PUBCHEM_MMFF94_PARTIAL_CHARGES>
13
1 -0.43
10 -0.15
11 -0.15
12 -0.01
2 -0.28
22 0.15
23 0.15
24 0.15
3 -0.57
4 0.06
6 0.46
7 0.66
9 -0.04

> <PUBCHEM_EFFECTIVE_ROTOR_COUNT>
5

> <PUBCHEM_PHARMACOPHORE_FEATURES>
4
1 2 acceptor
1 3 acceptor
1 8 hydrophobe
5 2 9 10 11 12 rings

> <PUBCHEM_HEAVY_ATOM_COUNT>
12

> <PUBCHEM_ATOM_DEF_STEREO_COUNT>
0

> <PUBCHEM_ATOM_UDEF_STEREO_COUNT>
0

> <PUBCHEM_BOND_DEF_STEREO_COUNT>
0

> <PUBCHEM_BOND_UDEF_STEREO_COUNT>
0

> <PUBCHEM_ISOTOPIC_ATOM_COUNT>
0

> <PUBCHEM_COMPONENT_COUNT>
1

> <PUBCHEM_CACTVS_TAUTO_COUNT>
1

> <PUBCHEM_CONFORMER_ID>
0000EEEF00000001

> <PUBCHEM_MMFF94_ENERGY>
4.8374

> <PUBCHEM_FEATURE_SELFOVERLAP>
20.297

> <PUBCHEM_SHAPE_FINGERPRINT>
11471102 20 17989209244104402876
11543360 7 16988551438253615205
122479 349 18261114088602201507
12251169 10 13334742340114580066
12500047 106 18410292544582406406
12932764 1 14129337442241954554
13690532 89 11239995655340023645
14252887 29 11602817973887939744
14993402 34 15985384503670727461
15242439 84 18342745108887207230
18186145 218 18343299232756707585
200 152 16056882416135591099
20279233 1 18202006546811316430
20281407 28 9367344855623729327
20432913 95 10881403114884948621
20645477 56 18335139808248081141
20645477 70 17632022961656911326
20671657 53 13038901127633443003
20767249 442 18260545619272861377
20871999 31 17488729190777337287
21119208 17 16702301247825190933
212847 35 18334011657884006840
22485316 2 7925910370470446497
23402539 116 18342729719676455413
23402655 69 17918275341816983948
23500284 214 18334017185770459769
3060560 45 17561367266629808630
4028521 119 18341328912267740093
4047638 21 18410576171316185114
4990 188 17988926652109245423
522135 26 17917993845523484574
93112 12 17704071819430340494

> <PUBCHEM_SHAPE_MULTIPOLES>
229.35
9.53
1.27
0.77
6.14
0.12
-0.04
-3.95
-1.26
0.32
0.12
-0.39
-0.03
0.58

> <PUBCHEM_SHAPE_SELFOVERLAP>
459.7

> <PUBCHEM_SHAPE_VOLUME>
136.6

> <PUBCHEM_COORDINATE_TYPE>
2
5
10

$$$$
