61168
  -OEChem-11232109043D

 25 25  0     0  0  0  0  0  0999 V2000
    2.2187    0.2969    0.0020 O   0  0  0  0  0  0  0  0  0  0  0  0
   -2.7217    1.1580   -0.0216 O   0  0  0  0  0  0  0  0  0  0  0  0
    1.4289   -1.8741   -0.0148 O   0  0  0  0  0  0  0  0  0  0  0  0
    4.5124    1.0102    0.0158 C   0  0  0  0  0  0  0  0  0  0  0  0
    3.5678   -0.1818    0.0045 C   0  0  0  0  0  0  0  0  0  0  0  0
    5.9676    0.5779    0.0040 C   0  0  0  0  0  0  0  0  0  0  0  0
   -2.5440   -0.1578   -0.0004 C   0  0  0  0  0  0  0  0  0  0  0  0
    1.2570   -0.6655   -0.0079 C   0  0  0  0  0  0  0  0  0  0  0  0
   -1.1807   -0.7169   -0.0084 C   0  0  0  0  0  0  0  0  0  0  0  0
   -0.0576    0.0153   -0.0106 C   0  0  0  0  0  0  0  0  0  0  0  0
   -3.6749   -0.8768    0.0256 C   0  0  0  0  0  0  0  0  0  0  0  0
   -4.7024    0.0965    0.0205 C   0  0  0  0  0  0  0  0  0  0  0  0
   -4.0711    1.3181   -0.0087 C   0  0  0  0  0  0  0  0  0  0  0  0
    4.3073    1.6502   -0.8508 H   0  0  0  0  0  0  0  0  0  0  0  0
    4.3141    1.6281    0.8998 H   0  0  0  0  0  0  0  0  0  0  0  0
    3.7368   -0.7886   -0.8928 H   0  0  0  0  0  0  0  0  0  0  0  0
    3.7305   -0.8005    0.8949 H   0  0  0  0  0  0  0  0  0  0  0  0
    6.1956   -0.0079   -0.8922 H   0  0  0  0  0  0  0  0  0  0  0  0
    6.6237    1.4538    0.0129 H   0  0  0  0  0  0  0  0  0  0  0  0
    6.2029   -0.0317    0.8823 H   0  0  0  0  0  0  0  0  0  0  0  0
   -1.1200   -1.8031   -0.0063 H   0  0  0  0  0  0  0  0  0  0  0  0
   -0.0770    1.1000   -0.0096 H   0  0  0  0  0  0  0  0  0  0  0  0
   -3.7899   -1.9513    0.0456 H   0  0  0  0  0  0  0  0  0  0  0  0
   -5.7696   -0.0713    0.0358 H   0  0  0  0  0  0  0  0  0  0  0  0
   -4.4208    2.3402   -0.0227 H   0  0  0  0  0  0  0  0  0  0  0  0
  1  5  1  0  0  0  0
  1  8  1  0  0  0  0
  2  7  1  0  0  0  0
  2 13  1  0  0  0  0
  3  8  2  0  0  0  0
  4  5  1  0  0  0  0
  4  6  1  0  0  0  0
  4 14  1  0  0  0  0
  4 15  1  0  0  0  0
  5 16  1  0  0  0  0
  5 17  1  0  0  0  0
  6 18  1  0  0  0  0
  6 19  1  0  0  0  0
  6 20  1  0  0  0  0
  7  9  1  0  0  0  0
  7 11  2  0  0  0  0
  8 10  1  0  0  0  0
  9 10  2  3  0  0  0
  9 21  1  0  0  0  0
 10 22  1  0  0  0  0
 11 12  1  0  0  0  0
 11 23  1  0  0  0  0
 12 13  2  0  0  0  0
 12 24  1  0  0  0  0
 13 25  1  0  0  0  0
M  END
> <PUBCHEM_COMPOUND_CID>
61168

> <PUBCHEM_CONFORMER_RMSD>
0.6

> <PUBCHEM_CONFORMER_DIVERSEORDER>
1
73
18
41
72
3
20
69
59
60
66
81
82
67
15
71
25
12
85
2
45
77
70
84
34
58
43
52
78
55
4
27
46
54
44
48
33
37
79
26
19
8
80
7
50
47
42
86
28
32
63
30
76
23
62
68
65
35
6
75
53
36
51
38
11
83
17
21
74
5
64
24
57
39
10
22
9
40
61
16
13
14
49
29
31
56

> <PUBCHEM_MMFF94_PARTIAL_CHARGES>
16
1 -0.43
10 -0.14
11 -0.15
12 -0.15
13 -0.01
2 -0.28
21 0.15
22 0.15
23 0.15
24 0.15
25 0.15
3 -0.57
5 0.28
7 0.09
8 0.71
9 -0.11

> <PUBCHEM_EFFECTIVE_ROTOR_COUNT>
5

> <PUBCHEM_PHARMACOPHORE_FEATURES>
4
1 2 acceptor
1 3 acceptor
1 6 hydrophobe
5 2 7 11 12 13 rings

> <PUBCHEM_HEAVY_ATOM_COUNT>
13

> <PUBCHEM_ATOM_DEF_STEREO_COUNT>
0

> <PUBCHEM_ATOM_UDEF_STEREO_COUNT>
0

> <PUBCHEM_BOND_DEF_STEREO_COUNT>
0

> <PUBCHEM_BOND_UDEF_STEREO_COUNT>
1

> <PUBCHEM_ISOTOPIC_ATOM_COUNT>
0

> <PUBCHEM_COMPONENT_COUNT>
1

> <PUBCHEM_CACTVS_TAUTO_COUNT>
1

> <PUBCHEM_CONFORMER_ID>
0000EEF000000001

> <PUBCHEM_MMFF94_ENERGY>
16.8913

> <PUBCHEM_FEATURE_SELFOVERLAP>
20.297

> <PUBCHEM_SHAPE_FINGERPRINT>
10014705 185 18260825961106427269
100836 57 18408327700650962380
114248 4 16415481571167577116
12815109 37 9367350331817918348
13081056 2 18342457058384410800
13214271 11 18334575763341834543
13897977 58 18411700989318744885
14123238 8 18187363242214779604
14252887 29 13045934682357831712
14325111 11 18338517439718747527
15501527 16 18413111641262423153
17834072 33 18131346423230248886
17834076 25 18410855468723384144
187816 3 14405190581850874846
20279233 1 13695587728719513811
20281389 69 18260545624132753332
20374829 77 10663824065856928108
20645477 56 18411138022406916065
20645477 70 17417822695177400550
20767249 213 18333731329689938029
20828058 44 7925914776811447616
212847 35 18409729586946294880
23402539 116 18040428927663200511
23402655 69 18131068203775295453
26918003 58 12179843905127095413
2916195 48 18129935797615725824
3545911 37 18411140233650318279
366044 4 18410574015860151306
42 15 10881400932693097070
42788 4 18411138047944565728
441001 317 18202003205121266009
449060 50 18408606946238823207
5104073 3 18188778228107416931
77779 3 18411983524904490311

> <PUBCHEM_SHAPE_MULTIPOLES>
249.93
12.17
1.29
0.59
9.77
0.12
0
-4.09
-0.08
-0.27
0
-0.01
0
0.02

> <PUBCHEM_SHAPE_SELFOVERLAP>
505.883

> <PUBCHEM_SHAPE_VOLUME>
147.1

> <PUBCHEM_COORDINATE_TYPE>
2
5
10

$$$$
