61183
  -OEChem-11232109043D

 25 25  0     1  0  0  0  0  0999 V2000
   -1.7588   -1.0466    0.1993 O   0  0  0  0  0  0  0  0  0  0  0  0
    0.8637   -0.1543   -0.3119 O   0  0  0  0  0  0  0  0  0  0  0  0
    2.4253    1.2683    0.6161 O   0  0  0  0  0  0  0  0  0  0  0  0
   -1.4940    0.1942   -0.4767 C   0  0  1  0  0  0  0  0  0  0  0  0
   -2.6820    1.0954   -0.1874 C   0  0  0  0  0  0  0  0  0  0  0  0
   -3.8099    0.0961   -0.1289 C   0  0  0  0  0  0  0  0  0  0  0  0
   -3.1490   -1.0819    0.5550 C   0  0  0  0  0  0  0  0  0  0  0  0
   -0.1715    0.7661   -0.0042 C   0  0  0  0  0  0  0  0  0  0  0  0
    2.1304    0.2217    0.0556 C   0  0  0  0  0  0  0  0  0  0  0  0
    3.1080   -0.8602   -0.3395 C   0  0  0  0  0  0  0  0  0  0  0  0
    4.5379   -0.4988    0.0228 C   0  0  0  0  0  0  0  0  0  0  0  0
   -1.4398   -0.0434   -1.5464 H   0  0  0  0  0  0  0  0  0  0  0  0
   -2.8246    1.8676   -0.9484 H   0  0  0  0  0  0  0  0  0  0  0  0
   -2.5758    1.5877    0.7869 H   0  0  0  0  0  0  0  0  0  0  0  0
   -4.6928    0.4587    0.4037 H   0  0  0  0  0  0  0  0  0  0  0  0
   -4.1126   -0.1827   -1.1452 H   0  0  0  0  0  0  0  0  0  0  0  0
   -3.2153   -0.9956    1.6447 H   0  0  0  0  0  0  0  0  0  0  0  0
   -3.5825   -2.0397    0.2537 H   0  0  0  0  0  0  0  0  0  0  0  0
   -0.1932    0.9145    1.0822 H   0  0  0  0  0  0  0  0  0  0  0  0
    0.0244    1.7238   -0.4998 H   0  0  0  0  0  0  0  0  0  0  0  0
    2.8259   -1.7856    0.1736 H   0  0  0  0  0  0  0  0  0  0  0  0
    3.0361   -1.0135   -1.4215 H   0  0  0  0  0  0  0  0  0  0  0  0
    4.6431   -0.3443    1.1018 H   0  0  0  0  0  0  0  0  0  0  0  0
    5.2210   -1.2995   -0.2766 H   0  0  0  0  0  0  0  0  0  0  0  0
    4.8497    0.4231   -0.4793 H   0  0  0  0  0  0  0  0  0  0  0  0
  1  4  1  0  0  0  0
  1  7  1  0  0  0  0
  2  8  1  0  0  0  0
  2  9  1  0  0  0  0
  3  9  2  0  0  0  0
  4  5  1  0  0  0  0
  4  8  1  0  0  0  0
  4 12  1  0  0  0  0
  5  6  1  0  0  0  0
  5 13  1  0  0  0  0
  5 14  1  0  0  0  0
  6  7  1  0  0  0  0
  6 15  1  0  0  0  0
  6 16  1  0  0  0  0
  7 17  1  0  0  0  0
  7 18  1  0  0  0  0
  8 19  1  0  0  0  0
  8 20  1  0  0  0  0
  9 10  1  0  0  0  0
 10 11  1  0  0  0  0
 10 21  1  0  0  0  0
 10 22  1  0  0  0  0
 11 23  1  0  0  0  0
 11 24  1  0  0  0  0
 11 25  1  0  0  0  0
M  END
> <PUBCHEM_COMPOUND_CID>
61183

> <PUBCHEM_CONFORMER_RMSD>
0.6

> <PUBCHEM_CONFORMER_DIVERSEORDER>
1
108
8
25
74
53
92
68
93
42
41
19
109
4
75
50
2
86
52
76
59
39
37
79
102
58
95
55
7
106
72
49
54
105
62
16
28
91
70
60
17
101
29
33
47
99
71
30
66
51
94
56
12
67
40
31
96
43
90
57
83
87
89
78
80
26
14
46
97
13
35
61
32
64
6
77
98
34
82
63
36
100
107
20
18
48
9
10
44
88
45
84
73
69
11
104
22
103
15
23
24
65
38
81
27
3
21
5
85

> <PUBCHEM_MMFF94_PARTIAL_CHARGES>
8
1 -0.56
10 0.06
2 -0.43
3 -0.57
4 0.28
7 0.28
8 0.28
9 0.66

> <PUBCHEM_EFFECTIVE_ROTOR_COUNT>
5

> <PUBCHEM_PHARMACOPHORE_FEATURES>
4
1 1 acceptor
1 11 hydrophobe
1 3 acceptor
5 1 4 5 6 7 rings

> <PUBCHEM_HEAVY_ATOM_COUNT>
11

> <PUBCHEM_ATOM_DEF_STEREO_COUNT>
0

> <PUBCHEM_ATOM_UDEF_STEREO_COUNT>
1

> <PUBCHEM_BOND_DEF_STEREO_COUNT>
0

> <PUBCHEM_BOND_UDEF_STEREO_COUNT>
0

> <PUBCHEM_ISOTOPIC_ATOM_COUNT>
0

> <PUBCHEM_COMPONENT_COUNT>
1

> <PUBCHEM_CACTVS_TAUTO_COUNT>
1

> <PUBCHEM_CONFORMER_ID>
0000EEFF00000001

> <PUBCHEM_MMFF94_ENERGY>
12.7777

> <PUBCHEM_FEATURE_SELFOVERLAP>
20.297

> <PUBCHEM_SHAPE_FINGERPRINT>
11062470 55 11167938061048771158
12032990 46 18409733966878909367
124424 183 18272647922385338037
12932764 1 16515956034203041572
13296908 3 18336264625717663617
14252887 29 17632301134252040390
14325111 11 18410574002357811053
14577589 140 18342737416574575359
177051 138 18408323319277820767
17834074 16 18409452466375462294
18186145 218 16009028427405079317
190213 19 17095244717607148854
1986462 14 18259985959417389295
200 152 17561073705667919597
20201158 50 18342459214109814334
20279233 1 18343867701405637270
20281407 28 18408608045766281634
20645464 45 18272939306226017215
20645477 70 17773876407169992590
21119208 17 16805323283913515270
21293036 1 12685095886384999702
22485316 2 18187362112833676522
23402539 116 18060131025804631053

> <PUBCHEM_SHAPE_MULTIPOLES>
208.77
8.05
1.18
0.7
4.03
0.01
0.01
-1.46
0.19
-0.3
0.12
-0.01
0.01
0.49

> <PUBCHEM_SHAPE_SELFOVERLAP>
405.634

> <PUBCHEM_SHAPE_VOLUME>
127.6

> <PUBCHEM_COORDINATE_TYPE>
2
5
10

$$$$
