61197
  -OEChem-11232108533D

 19 18  0     0  0  0  0  0  0999 V2000
    2.6500   -0.7779    0.0000 O   0  0  0  0  0  0  0  0  0  0  0  0
    1.8638    1.3945   -0.0002 O   0  0  0  0  0  0  0  0  0  0  0  0
   -2.0668   -0.3601    0.0002 C   0  0  0  0  0  0  0  0  0  0  0  0
   -0.7495    0.2370    0.0007 C   0  0  0  0  0  0  0  0  0  0  0  0
   -3.1987    0.3591    0.0000 C   0  0  0  0  0  0  0  0  0  0  0  0
    0.3750   -0.4914    0.0011 C   0  0  0  0  0  0  0  0  0  0  0  0
   -4.5642   -0.2456   -0.0011 C   0  0  0  0  0  0  0  0  0  0  0  0
    1.6903    0.1862    0.0004 C   0  0  0  0  0  0  0  0  0  0  0  0
    4.0000   -0.3017   -0.0012 C   0  0  0  0  0  0  0  0  0  0  0  0
   -2.1223   -1.4459    0.0000 H   0  0  0  0  0  0  0  0  0  0  0  0
   -0.7033    1.3232    0.0004 H   0  0  0  0  0  0  0  0  0  0  0  0
   -3.1539    1.4456    0.0002 H   0  0  0  0  0  0  0  0  0  0  0  0
    0.3541   -1.5767    0.0012 H   0  0  0  0  0  0  0  0  0  0  0  0
   -4.5342   -1.3398   -0.0015 H   0  0  0  0  0  0  0  0  0  0  0  0
   -5.1152    0.0808   -0.8883 H   0  0  0  0  0  0  0  0  0  0  0  0
   -5.1162    0.0801    0.8859 H   0  0  0  0  0  0  0  0  0  0  0  0
    4.6662   -1.1685   -0.0014 H   0  0  0  0  0  0  0  0  0  0  0  0
    4.1935    0.2901    0.8986 H   0  0  0  0  0  0  0  0  0  0  0  0
    4.1921    0.2894   -0.9017 H   0  0  0  0  0  0  0  0  0  0  0  0
  1  8  1  0  0  0  0
  1  9  1  0  0  0  0
  2  8  2  0  0  0  0
  3  4  1  0  0  0  0
  3  5  2  3  0  0  0
  3 10  1  0  0  0  0
  4  6  2  3  0  0  0
  4 11  1  0  0  0  0
  5  7  1  0  0  0  0
  5 12  1  0  0  0  0
  6  8  1  0  0  0  0
  6 13  1  0  0  0  0
  7 14  1  0  0  0  0
  7 15  1  0  0  0  0
  7 16  1  0  0  0  0
  9 17  1  0  0  0  0
  9 18  1  0  0  0  0
  9 19  1  0  0  0  0
M  END
> <PUBCHEM_COMPOUND_CID>
61197

> <PUBCHEM_CONFORMER_RMSD>
0.6

> <PUBCHEM_CONFORMER_DIVERSEORDER>
1
2
4
3

> <PUBCHEM_MMFF94_PARTIAL_CHARGES>
13
1 -0.43
10 0.15
11 0.15
12 0.15
13 0.15
2 -0.57
3 -0.15
4 -0.15
5 -0.29
6 -0.14
7 0.14
8 0.71
9 0.28

> <PUBCHEM_EFFECTIVE_ROTOR_COUNT>
3

> <PUBCHEM_PHARMACOPHORE_FEATURES>
2
1 2 acceptor
1 7 hydrophobe

> <PUBCHEM_HEAVY_ATOM_COUNT>
9

> <PUBCHEM_ATOM_DEF_STEREO_COUNT>
0

> <PUBCHEM_ATOM_UDEF_STEREO_COUNT>
0

> <PUBCHEM_BOND_DEF_STEREO_COUNT>
0

> <PUBCHEM_BOND_UDEF_STEREO_COUNT>
2

> <PUBCHEM_ISOTOPIC_ATOM_COUNT>
0

> <PUBCHEM_COMPONENT_COUNT>
1

> <PUBCHEM_CACTVS_TAUTO_COUNT>
1

> <PUBCHEM_CONFORMER_ID>
0000EF0D00000001

> <PUBCHEM_MMFF94_ENERGY>
10.7453

> <PUBCHEM_FEATURE_SELFOVERLAP>
10.148

> <PUBCHEM_SHAPE_FINGERPRINT>
11062470 55 10879991359023671563
12932764 1 17095790101318454723
14325111 11 18410574019906847875
190213 19 17775286058406940679
20719005 15 18410575093785912875
23402539 116 17560794412598080581
3248919 1 16917082082730831943

> <PUBCHEM_SHAPE_MULTIPOLES>
173.48
7.97
0.9
0.6
2.72
0.17
0
-0.78
0
-0.38
0
0.05
-0.01
0

> <PUBCHEM_SHAPE_SELFOVERLAP>
324.252

> <PUBCHEM_SHAPE_VOLUME>
108.9

> <PUBCHEM_COORDINATE_TYPE>
2
5
10

$$$$
