61210
  -OEChem-11232109093D

 21 21  0     0  0  0  0  0  0999 V2000
   -1.3778   -0.8049   -0.2295 O   0  0  0  0  0  0  0  0  0  0  0  0
    3.7076    0.5314    0.1058 O   0  0  0  0  0  0  0  0  0  0  0  0
    1.3822   -1.0526    0.6881 C   0  0  0  0  0  0  0  0  0  0  0  0
    1.3246    0.3144    0.0560 C   0  0  0  0  0  0  0  0  0  0  0  0
    0.2286    1.0131   -0.2931 C   0  0  0  0  0  0  0  0  0  0  0  0
   -1.0977    0.5144   -0.1321 C   0  0  0  0  0  0  0  0  0  0  0  0
    1.4355   -2.1706   -0.3446 C   0  0  0  0  0  0  0  0  0  0  0  0
   -2.2234    1.2459    0.1314 C   0  0  0  0  0  0  0  0  0  0  0  0
    2.6178    1.0245   -0.1614 C   0  0  0  0  0  0  0  0  0  0  0  0
   -3.2816    0.3088    0.2028 C   0  0  0  0  0  0  0  0  0  0  0  0
   -2.7158   -0.9243   -0.0234 C   0  0  0  0  0  0  0  0  0  0  0  0
    2.2566   -1.1290    1.3458 H   0  0  0  0  0  0  0  0  0  0  0  0
    0.5240   -1.2079    1.3521 H   0  0  0  0  0  0  0  0  0  0  0  0
    0.3203    2.0242   -0.6826 H   0  0  0  0  0  0  0  0  0  0  0  0
    1.4319   -3.1441    0.1562 H   0  0  0  0  0  0  0  0  0  0  0  0
    2.3526   -2.1055   -0.9403 H   0  0  0  0  0  0  0  0  0  0  0  0
    0.5882   -2.1439   -1.0351 H   0  0  0  0  0  0  0  0  0  0  0  0
   -2.2903    2.3174    0.2593 H   0  0  0  0  0  0  0  0  0  0  0  0
    2.5481    2.0384   -0.5907 H   0  0  0  0  0  0  0  0  0  0  0  0
   -4.3260    0.5072    0.3954 H   0  0  0  0  0  0  0  0  0  0  0  0
   -3.1073   -1.9299   -0.0682 H   0  0  0  0  0  0  0  0  0  0  0  0
  1  6  1  0  0  0  0
  1 11  1  0  0  0  0
  2  9  2  0  0  0  0
  3  4  1  0  0  0  0
  3  7  1  0  0  0  0
  3 12  1  0  0  0  0
  3 13  1  0  0  0  0
  4  5  2  3  0  0  0
  4  9  1  0  0  0  0
  5  6  1  0  0  0  0
  5 14  1  0  0  0  0
  6  8  2  0  0  0  0
  7 15  1  0  0  0  0
  7 16  1  0  0  0  0
  7 17  1  0  0  0  0
  8 10  1  0  0  0  0
  8 18  1  0  0  0  0
  9 19  1  0  0  0  0
 10 11  2  0  0  0  0
 10 20  1  0  0  0  0
 11 21  1  0  0  0  0
M  END
> <PUBCHEM_COMPOUND_CID>
61210

> <PUBCHEM_CONFORMER_RMSD>
0.6

> <PUBCHEM_CONFORMER_DIVERSEORDER>
1
8
13
15
6
11
10
9
7
2
14
12
5
4
3

> <PUBCHEM_MMFF94_PARTIAL_CHARGES>
15
1 -0.28
10 -0.15
11 -0.01
14 0.15
18 0.15
19 0.06
2 -0.57
20 0.15
21 0.15
3 0.14
4 -0.12
5 -0.11
6 0.09
8 -0.15
9 0.5

> <PUBCHEM_EFFECTIVE_ROTOR_COUNT>
3

> <PUBCHEM_PHARMACOPHORE_FEATURES>
4
1 1 acceptor
1 2 acceptor
1 7 hydrophobe
5 1 6 8 10 11 rings

> <PUBCHEM_HEAVY_ATOM_COUNT>
11

> <PUBCHEM_ATOM_DEF_STEREO_COUNT>
0

> <PUBCHEM_ATOM_UDEF_STEREO_COUNT>
0

> <PUBCHEM_BOND_DEF_STEREO_COUNT>
0

> <PUBCHEM_BOND_UDEF_STEREO_COUNT>
1

> <PUBCHEM_ISOTOPIC_ATOM_COUNT>
0

> <PUBCHEM_COMPONENT_COUNT>
1

> <PUBCHEM_CACTVS_TAUTO_COUNT>
1

> <PUBCHEM_CONFORMER_ID>
0000EF1A00000001

> <PUBCHEM_MMFF94_ENERGY>
10.96

> <PUBCHEM_FEATURE_SELFOVERLAP>
20.297

> <PUBCHEM_SHAPE_FINGERPRINT>
10219947 1 17676205801337070388
11062470 55 16009024003588881221
12346645 44 18411981381868797024
12897270 3 18409728486484938853
12932764 1 17203315702843235729
13380535 21 18339372876454260163
13380535 76 18408039632329935091
14144814 61 18411700954790201601
14325111 11 18410011074259183724
15775835 57 18343304777190156673
16945 1 18411417340877559881
170605 34 18333452045114718002
17990270 104 18267021661203906974
20201158 50 18334575750240641739
20645477 70 18338228250975700207
20711985 365 18050001091290236721
20871998 184 18200318865277317191
23235685 24 18334852852777062720
23463225 33 18334009480488354202
23552423 10 18262519182758010643
2748010 2 18191585255175255965
3248919 1 18269262496150357641
3312278 4 18411984684767044065
369184 2 18413105039987216897
528862 383 18335978684012154678
7364860 26 18271244898541142966
8030462 33 18131058312708374757

> <PUBCHEM_SHAPE_MULTIPOLES>
214.64
5.21
1.69
0.68
0.07
0.76
-0.03
-0.75
-0.26
0.6
0.13
0.05
0.06
-0.08

> <PUBCHEM_SHAPE_SELFOVERLAP>
439.776

> <PUBCHEM_SHAPE_VOLUME>
124.9

> <PUBCHEM_COORDINATE_TYPE>
2
5
10

$$$$
