61240
  -OEChem-11232109073D

 18 18  0     0  0  0  0  0  0999 V2000
    2.0442   -1.0919    0.0007 O   0  0  0  0  0  0  0  0  0  0  0  0
   -0.8540   -0.7396   -0.0004 N   0  0  0  0  0  0  0  0  0  0  0  0
    0.0869    0.2567    0.0004 C   0  0  0  0  0  0  0  0  0  0  0  0
   -0.5768    1.4638    0.0005 C   0  0  0  0  0  0  0  0  0  0  0  0
   -2.1081   -0.1869   -0.0001 C   0  0  0  0  0  0  0  0  0  0  0  0
   -1.9655    1.1830    0.0000 C   0  0  0  0  0  0  0  0  0  0  0  0
   -0.5831   -2.1605   -0.0003 C   0  0  0  0  0  0  0  0  0  0  0  0
    1.5014    0.0392   -0.0001 C   0  0  0  0  0  0  0  0  0  0  0  0
    2.4550    1.2363   -0.0007 C   0  0  0  0  0  0  0  0  0  0  0  0
   -0.1253    2.4465    0.0007 H   0  0  0  0  0  0  0  0  0  0  0  0
   -2.9961   -0.8049   -0.0003 H   0  0  0  0  0  0  0  0  0  0  0  0
   -2.7741    1.9004   -0.0001 H   0  0  0  0  0  0  0  0  0  0  0  0
   -1.5290   -2.7092   -0.0006 H   0  0  0  0  0  0  0  0  0  0  0  0
   -0.0216   -2.4108   -0.9037 H   0  0  0  0  0  0  0  0  0  0  0  0
   -0.0223   -2.4108    0.9036 H   0  0  0  0  0  0  0  0  0  0  0  0
    2.2912    1.8387   -0.8982 H   0  0  0  0  0  0  0  0  0  0  0  0
    3.4906    0.8833   -0.0020 H   0  0  0  0  0  0  0  0  0  0  0  0
    2.2931    1.8382    0.8974 H   0  0  0  0  0  0  0  0  0  0  0  0
  1  8  2  0  0  0  0
  2  3  1  0  0  0  0
  2  5  1  0  0  0  0
  2  7  1  0  0  0  0
  3  4  2  0  0  0  0
  3  8  1  0  0  0  0
  4  6  1  0  0  0  0
  4 10  1  0  0  0  0
  5  6  2  0  0  0  0
  5 11  1  0  0  0  0
  6 12  1  0  0  0  0
  7 13  1  0  0  0  0
  7 14  1  0  0  0  0
  7 15  1  0  0  0  0
  8  9  1  0  0  0  0
  9 16  1  0  0  0  0
  9 17  1  0  0  0  0
  9 18  1  0  0  0  0
M  END
> <PUBCHEM_COMPOUND_CID>
61240

> <PUBCHEM_CONFORMER_RMSD>
0.4

> <PUBCHEM_CONFORMER_DIVERSEORDER>
1
2
5
3
4

> <PUBCHEM_MMFF94_PARTIAL_CHARGES>
12
1 -0.57
10 0.15
11 0.15
12 0.15
2 0.05
3 -0.24
4 -0.15
5 -0.3
6 -0.15
7 0.26
8 0.59
9 0.06

> <PUBCHEM_EFFECTIVE_ROTOR_COUNT>
1

> <PUBCHEM_PHARMACOPHORE_FEATURES>
3
1 1 acceptor
1 2 cation
5 2 3 4 5 6 rings

> <PUBCHEM_HEAVY_ATOM_COUNT>
9

> <PUBCHEM_ATOM_DEF_STEREO_COUNT>
0

> <PUBCHEM_ATOM_UDEF_STEREO_COUNT>
0

> <PUBCHEM_BOND_DEF_STEREO_COUNT>
0

> <PUBCHEM_BOND_UDEF_STEREO_COUNT>
0

> <PUBCHEM_ISOTOPIC_ATOM_COUNT>
0

> <PUBCHEM_COMPONENT_COUNT>
1

> <PUBCHEM_CACTVS_TAUTO_COUNT>
2

> <PUBCHEM_CONFORMER_ID>
0000EF3800000001

> <PUBCHEM_MMFF94_ENERGY>
11.6117

> <PUBCHEM_FEATURE_SELFOVERLAP>
15.223

> <PUBCHEM_SHAPE_FINGERPRINT>
12897270 3 18267305507260898092
14325111 11 18410855434680416705
16945 1 18266459991140034437
18185500 45 18120093033330926334
20871998 184 18056486272705680846
21040471 1 18410856555434616480
23552423 10 18334014969171884270
241688 4 16609698961099697731
2748010 2 18409450258640608677
29004967 10 18114751537081678329
369184 2 18412259536503406961
5084963 1 18130220437297297217

> <PUBCHEM_SHAPE_MULTIPOLES>
174.37
3.05
1.9
0.6
1.16
0.68
0
-0.67
0
-0.27
0
-0.01
-0.02
0

> <PUBCHEM_SHAPE_SELFOVERLAP>
358.118

> <PUBCHEM_SHAPE_VOLUME>
102.9

> <PUBCHEM_COORDINATE_TYPE>
2
5
10

$$$$
