61261
  -OEChem-11232108533D

 17 17  0     0  0  0  0  0  0999 V2000
    2.2161   -0.2089   -0.5876 S   0  0  0  0  0  0  0  0  0  0  0  0
    0.0691   -2.2986    0.0379 O   0  0  0  0  0  0  0  0  0  0  0  0
    0.4762    0.0541   -0.2732 C   0  0  0  0  0  0  0  0  0  0  0  0
   -0.3812   -1.0120   -0.0018 C   0  0  0  0  0  0  0  0  0  0  0  0
   -0.0196    1.3574   -0.3038 C   0  0  0  0  0  0  0  0  0  0  0  0
   -1.7345   -0.7749    0.2389 C   0  0  0  0  0  0  0  0  0  0  0  0
   -1.3729    1.5948   -0.0630 C   0  0  0  0  0  0  0  0  0  0  0  0
   -2.2303    0.5286    0.2083 C   0  0  0  0  0  0  0  0  0  0  0  0
    2.9770    0.7595    0.7442 C   0  0  0  0  0  0  0  0  0  0  0  0
    0.6256    2.2049   -0.5216 H   0  0  0  0  0  0  0  0  0  0  0  0
   -2.4085   -1.6004    0.4512 H   0  0  0  0  0  0  0  0  0  0  0  0
   -1.7596    2.6093   -0.0887 H   0  0  0  0  0  0  0  0  0  0  0  0
   -3.2841    0.7133    0.3953 H   0  0  0  0  0  0  0  0  0  0  0  0
    2.5899    0.4407    1.7159 H   0  0  0  0  0  0  0  0  0  0  0  0
    2.7850    1.8268    0.6081 H   0  0  0  0  0  0  0  0  0  0  0  0
    4.0583    0.5988    0.7300 H   0  0  0  0  0  0  0  0  0  0  0  0
    1.0243   -2.2923   -0.1467 H   0  0  0  0  0  0  0  0  0  0  0  0
  1  3  1  0  0  0  0
  1  9  1  0  0  0  0
  2  4  1  0  0  0  0
  2 17  1  0  0  0  0
  3  4  1  0  0  0  0
  3  5  2  0  0  0  0
  4  6  2  0  0  0  0
  5  7  1  0  0  0  0
  5 10  1  0  0  0  0
  6  8  1  0  0  0  0
  6 11  1  0  0  0  0
  7  8  2  0  0  0  0
  7 12  1  0  0  0  0
  8 13  1  0  0  0  0
  9 14  1  0  0  0  0
  9 15  1  0  0  0  0
  9 16  1  0  0  0  0
M  END
> <PUBCHEM_COMPOUND_CID>
61261

> <PUBCHEM_CONFORMER_RMSD>
0.4

> <PUBCHEM_CONFORMER_DIVERSEORDER>
2
5
4
3
1

> <PUBCHEM_MMFF94_PARTIAL_CHARGES>
14
1 -0.33
10 0.15
11 0.15
12 0.15
13 0.15
17 0.45
2 -0.53
3 0.1
4 0.08
5 -0.15
6 -0.15
7 -0.15
8 -0.15
9 0.23

> <PUBCHEM_EFFECTIVE_ROTOR_COUNT>
1

> <PUBCHEM_PHARMACOPHORE_FEATURES>
3
1 2 donor
1 9 hydrophobe
6 3 4 5 6 7 8 rings

> <PUBCHEM_HEAVY_ATOM_COUNT>
9

> <PUBCHEM_ATOM_DEF_STEREO_COUNT>
0

> <PUBCHEM_ATOM_UDEF_STEREO_COUNT>
0

> <PUBCHEM_BOND_DEF_STEREO_COUNT>
0

> <PUBCHEM_BOND_UDEF_STEREO_COUNT>
0

> <PUBCHEM_ISOTOPIC_ATOM_COUNT>
0

> <PUBCHEM_COMPONENT_COUNT>
1

> <PUBCHEM_CACTVS_TAUTO_COUNT>
3

> <PUBCHEM_CONFORMER_ID>
0000EF4D00000002

> <PUBCHEM_MMFF94_ENERGY>
21.9172

> <PUBCHEM_FEATURE_SELFOVERLAP>
15.223

> <PUBCHEM_SHAPE_FINGERPRINT>
10857977 72 18336549403466293696
13024252 1 14562517479696509828
15310529 11 15051738568457326037
16945 1 18335147483391614349
20645464 45 18202280316769522984
20871998 184 18127697247322539350
21040471 1 18336554802277004076
23211744 41 18202565046988533340
23552423 10 18115601348085500214
2748010 2 18264500481225825279
369184 2 18272366477552435296
5084963 1 18271819985876775556
54338 74 18119792858129873362

> <PUBCHEM_SHAPE_MULTIPOLES>
183.2
3.42
1.81
0.75
1.96
0.54
-0.01
-0.81
-0.57
-0.41
-0.01
0.29
-0.07
0.26

> <PUBCHEM_SHAPE_SELFOVERLAP>
360.987

> <PUBCHEM_SHAPE_VOLUME>
111.1

> <PUBCHEM_COORDINATE_TYPE>
2
5
10

$$$$
