61260
  -OEChem-11232109193D

 18 18  0     0  0  0  0  0  0999 V2000
   -1.4889    1.4765   -0.0044 O   0  0  0  0  0  0  0  0  0  0  0  0
    1.3721    1.0417    0.0024 N   0  0  0  0  0  0  0  0  0  0  0  0
    0.4144    0.0615   -0.0022 C   0  0  0  0  0  0  0  0  0  0  0  0
   -1.9843   -0.8635   -0.0084 C   0  0  0  0  0  0  0  0  0  0  0  0
   -0.9904    0.3229   -0.0045 C   0  0  0  0  0  0  0  0  0  0  0  0
    1.0575   -1.1567   -0.0029 C   0  0  0  0  0  0  0  0  0  0  0  0
   -3.4478   -0.4507    0.0130 C   0  0  0  0  0  0  0  0  0  0  0  0
    2.6166    0.4677    0.0053 C   0  0  0  0  0  0  0  0  0  0  0  0
    2.4508   -0.8995    0.0016 C   0  0  0  0  0  0  0  0  0  0  0  0
   -1.7950   -1.4607   -0.9074 H   0  0  0  0  0  0  0  0  0  0  0  0
   -1.7774   -1.4820    0.8723 H   0  0  0  0  0  0  0  0  0  0  0  0
    1.1910    2.0363    0.0039 H   0  0  0  0  0  0  0  0  0  0  0  0
    0.5888   -2.1312   -0.0062 H   0  0  0  0  0  0  0  0  0  0  0  0
   -3.6965    0.1566   -0.8634 H   0  0  0  0  0  0  0  0  0  0  0  0
   -4.0931   -1.3343    0.0120 H   0  0  0  0  0  0  0  0  0  0  0  0
   -3.6755    0.1393    0.9068 H   0  0  0  0  0  0  0  0  0  0  0  0
    3.5063    1.0816    0.0094 H   0  0  0  0  0  0  0  0  0  0  0  0
    3.2470   -1.6305    0.0025 H   0  0  0  0  0  0  0  0  0  0  0  0
  1  5  2  0  0  0  0
  2  3  1  0  0  0  0
  2  8  1  0  0  0  0
  2 12  1  0  0  0  0
  3  5  1  0  0  0  0
  3  6  2  0  0  0  0
  4  5  1  0  0  0  0
  4  7  1  0  0  0  0
  4 10  1  0  0  0  0
  4 11  1  0  0  0  0
  6  9  1  0  0  0  0
  6 13  1  0  0  0  0
  7 14  1  0  0  0  0
  7 15  1  0  0  0  0
  7 16  1  0  0  0  0
  8  9  2  0  0  0  0
  8 17  1  0  0  0  0
  9 18  1  0  0  0  0
M  END
> <PUBCHEM_COMPOUND_CID>
61260

> <PUBCHEM_CONFORMER_RMSD>
0.4

> <PUBCHEM_CONFORMER_DIVERSEORDER>
1
13
6
14
2
3
10
17
12
16
7
18
8
9
4
15
11
5

> <PUBCHEM_MMFF94_PARTIAL_CHARGES>
12
1 -0.57
12 0.27
13 0.15
17 0.15
18 0.15
2 0.03
3 -0.24
4 0.06
5 0.59
6 -0.15
8 -0.3
9 -0.15

> <PUBCHEM_EFFECTIVE_ROTOR_COUNT>
2

> <PUBCHEM_PHARMACOPHORE_FEATURES>
5
1 1 acceptor
1 2 cation
1 2 donor
1 7 hydrophobe
5 2 3 6 8 9 rings

> <PUBCHEM_HEAVY_ATOM_COUNT>
9

> <PUBCHEM_ATOM_DEF_STEREO_COUNT>
0

> <PUBCHEM_ATOM_UDEF_STEREO_COUNT>
0

> <PUBCHEM_BOND_DEF_STEREO_COUNT>
0

> <PUBCHEM_BOND_UDEF_STEREO_COUNT>
0

> <PUBCHEM_ISOTOPIC_ATOM_COUNT>
0

> <PUBCHEM_COMPONENT_COUNT>
1

> <PUBCHEM_CACTVS_TAUTO_COUNT>
7

> <PUBCHEM_CONFORMER_ID>
0000EF4C00000001

> <PUBCHEM_MMFF94_ENERGY>
6.0073

> <PUBCHEM_FEATURE_SELFOVERLAP>
25.371

> <PUBCHEM_SHAPE_FINGERPRINT>
10857977 72 18339913917784779593
11062470 55 17385721421984677295
12897270 3 18409166631827221415
12932764 1 17489579065329773292
14325111 11 18410856555355410753
19973954 147 18410856516795975460
20201158 50 18407758149037583411
21040471 1 18410855490757383302
23552423 10 18260833639859034334
29004967 10 18408888455348444906
5084963 1 18343022185674923434

> <PUBCHEM_SHAPE_MULTIPOLES>
174.37
4.61
1.27
0.6
2.06
0.11
0
-0.64
-0.02
-0.07
0
0
-0.03
0

> <PUBCHEM_SHAPE_SELFOVERLAP>
354.96

> <PUBCHEM_SHAPE_VOLUME>
102.7

> <PUBCHEM_COORDINATE_TYPE>
2
5
10

$$$$
