61275
  -OEChem-11232109253D

 27 27  0     1  0  0  0  0  0999 V2000
   -0.5395   -1.5833    0.2652 O   0  0  0  0  0  0  0  0  0  0  0  0
    0.1233   -0.3684   -0.0970 C   0  0  1  0  0  0  0  0  0  0  0  0
   -0.6900    0.8198    0.4342 C   0  0  0  0  0  0  0  0  0  0  0  0
   -2.1520    0.6841    0.0936 C   0  0  0  0  0  0  0  0  0  0  0  0
   -1.7957   -1.7291   -0.4060 C   0  0  0  0  0  0  0  0  0  0  0  0
    1.4993   -0.3940    0.4833 C   0  0  0  0  0  0  0  0  0  0  0  0
   -2.6460   -0.4979   -0.3099 C   0  0  0  0  0  0  0  0  0  0  0  0
    2.6248    0.1551   -0.0112 C   0  0  0  0  0  0  0  0  0  0  0  0
   -2.9989    1.9115    0.2309 C   0  0  0  0  0  0  0  0  0  0  0  0
    3.9821    0.0896    0.6298 C   0  0  0  0  0  0  0  0  0  0  0  0
    2.5925    0.9125   -1.3128 C   0  0  0  0  0  0  0  0  0  0  0  0
    0.1743   -0.3436   -1.1925 H   0  0  0  0  0  0  0  0  0  0  0  0
   -0.2901    1.7513    0.0155 H   0  0  0  0  0  0  0  0  0  0  0  0
   -0.6064    0.8866    1.5270 H   0  0  0  0  0  0  0  0  0  0  0  0
    1.5860   -0.9081    1.4407 H   0  0  0  0  0  0  0  0  0  0  0  0
   -2.3153   -2.5700    0.0640 H   0  0  0  0  0  0  0  0  0  0  0  0
   -1.6177   -1.9892   -1.4553 H   0  0  0  0  0  0  0  0  0  0  0  0
   -3.6945   -0.5942   -0.5760 H   0  0  0  0  0  0  0  0  0  0  0  0
   -2.6354    2.7007   -0.4350 H   0  0  0  0  0  0  0  0  0  0  0  0
   -2.9650    2.2820    1.2605 H   0  0  0  0  0  0  0  0  0  0  0  0
   -4.0470    1.7183   -0.0204 H   0  0  0  0  0  0  0  0  0  0  0  0
    3.9590   -0.4834    1.5625 H   0  0  0  0  0  0  0  0  0  0  0  0
    4.6985   -0.3939   -0.0421 H   0  0  0  0  0  0  0  0  0  0  0  0
    4.3440    1.0957    0.8642 H   0  0  0  0  0  0  0  0  0  0  0  0
    3.1049    1.8742   -1.1955 H   0  0  0  0  0  0  0  0  0  0  0  0
    3.1138    0.3430   -2.0893 H   0  0  0  0  0  0  0  0  0  0  0  0
    1.5903    1.1452   -1.6787 H   0  0  0  0  0  0  0  0  0  0  0  0
  1  2  1  0  0  0  0
  1  5  1  0  0  0  0
  2  3  1  0  0  0  0
  2  6  1  0  0  0  0
  2 12  1  0  0  0  0
  3  4  1  0  0  0  0
  3 13  1  0  0  0  0
  3 14  1  0  0  0  0
  4  7  2  0  0  0  0
  4  9  1  0  0  0  0
  5  7  1  0  0  0  0
  5 16  1  0  0  0  0
  5 17  1  0  0  0  0
  6  8  2  0  0  0  0
  6 15  1  0  0  0  0
  7 18  1  0  0  0  0
  8 10  1  0  0  0  0
  8 11  1  0  0  0  0
  9 19  1  0  0  0  0
  9 20  1  0  0  0  0
  9 21  1  0  0  0  0
 10 22  1  0  0  0  0
 10 23  1  0  0  0  0
 10 24  1  0  0  0  0
 11 25  1  0  0  0  0
 11 26  1  0  0  0  0
 11 27  1  0  0  0  0
M  END
> <PUBCHEM_COMPOUND_CID>
61275

> <PUBCHEM_CONFORMER_RMSD>
0.4

> <PUBCHEM_CONFORMER_DIVERSEORDER>
2
11
1
12
6
7
5
8
10
9
4
3

> <PUBCHEM_MMFF94_PARTIAL_CHARGES>
13
1 -0.56
10 0.14
11 0.14
15 0.15
18 0.15
2 0.42
3 0.14
4 -0.28
5 0.42
6 -0.29
7 -0.29
8 -0.28
9 0.14

> <PUBCHEM_EFFECTIVE_ROTOR_COUNT>
1.8

> <PUBCHEM_PHARMACOPHORE_FEATURES>
3
1 1 acceptor
3 8 10 11 hydrophobe
6 1 2 3 4 5 7 rings

> <PUBCHEM_HEAVY_ATOM_COUNT>
11

> <PUBCHEM_ATOM_DEF_STEREO_COUNT>
0

> <PUBCHEM_ATOM_UDEF_STEREO_COUNT>
1

> <PUBCHEM_BOND_DEF_STEREO_COUNT>
0

> <PUBCHEM_BOND_UDEF_STEREO_COUNT>
0

> <PUBCHEM_ISOTOPIC_ATOM_COUNT>
0

> <PUBCHEM_COMPONENT_COUNT>
1

> <PUBCHEM_CACTVS_TAUTO_COUNT>
1

> <PUBCHEM_CONFORMER_ID>
0000EF5B00000002

> <PUBCHEM_MMFF94_ENERGY>
12.7251

> <PUBCHEM_FEATURE_SELFOVERLAP>
15.223

> <PUBCHEM_SHAPE_FINGERPRINT>
11206711 2 18342729750295120941
12138202 97 17989203729012980407
12162725 195 18334013929953218644
12716758 59 18201445748288292375
12932764 1 17917997212873043342
13024252 1 11963381951787704123
14325111 11 18412261705604114906
14897335 6 18340199679212730375
15775835 57 18336265652246716816
16945 1 18341332296485516127
18186145 218 17703518696552093944
20201158 50 17418094321413870282
20279233 1 17131835369605479908
20645464 45 17704070711286573595
20645477 56 18343585126848824417
20645477 70 15769504123173244068
20653085 51 18263377935429802410
20711983 171 18410017632468406316
20871998 184 18130791221640708575
21524375 3 18337107844173474521
22802520 49 17487919833643097580
23402539 116 18271793653780502279
23552423 10 18335420119162593170
23557571 272 17845939627519963112
23559900 14 18059853927573486306
305870 269 18190176789175031987
3248919 1 18113336444458385594
6333449 129 18202559588079773241
77492 1 18040712589078685234
9939556 21 18333452071042777300

> <PUBCHEM_SHAPE_MULTIPOLES>
220.51
5.86
1.63
0.88
3.53
0.08
0.18
-1.61
-0.15
-1.59
0.06
0.53
-0.13
-0.56

> <PUBCHEM_SHAPE_SELFOVERLAP>
431.684

> <PUBCHEM_SHAPE_VOLUME>
133.5

> <PUBCHEM_COORDINATE_TYPE>
2
5
10

$$$$
