61282
  -OEChem-11232109253D

 22 22  0     0  0  0  0  0  0999 V2000
   -1.3218   -0.6297    0.4903 S   0  0  0  0  0  0  0  0  0  0  0  0
    2.0326    0.9793    0.5389 O   0  0  0  0  0  0  0  0  0  0  0  0
   -2.8970    0.2489    0.2160 C   0  0  0  0  0  0  0  0  0  0  0  0
   -0.2148    0.6052   -0.2249 C   0  0  0  0  0  0  0  0  0  0  0  0
   -3.0950    0.4963   -1.2747 C   0  0  0  0  0  0  0  0  0  0  0  0
   -4.0466   -0.5614    0.8029 C   0  0  0  0  0  0  0  0  0  0  0  0
    1.2174    0.1604   -0.1491 C   0  0  0  0  0  0  0  0  0  0  0  0
    1.8598   -0.9221   -0.6467 C   0  0  0  0  0  0  0  0  0  0  0  0
    3.2059   -0.7745   -0.2355 C   0  0  0  0  0  0  0  0  0  0  0  0
    3.2594    0.3974    0.4827 C   0  0  0  0  0  0  0  0  0  0  0  0
   -2.8530    1.2090    0.7425 H   0  0  0  0  0  0  0  0  0  0  0  0
   -0.3441    1.5587    0.2978 H   0  0  0  0  0  0  0  0  0  0  0  0
   -0.4355    0.7551   -1.2849 H   0  0  0  0  0  0  0  0  0  0  0  0
   -4.1139    0.8562   -1.4619 H   0  0  0  0  0  0  0  0  0  0  0  0
   -2.4323    1.2748   -1.6623 H   0  0  0  0  0  0  0  0  0  0  0  0
   -2.9620   -0.4143   -1.8696 H   0  0  0  0  0  0  0  0  0  0  0  0
   -4.9951   -0.0279    0.6751 H   0  0  0  0  0  0  0  0  0  0  0  0
   -3.9097   -0.7280    1.8772 H   0  0  0  0  0  0  0  0  0  0  0  0
   -4.1487   -1.5365    0.3132 H   0  0  0  0  0  0  0  0  0  0  0  0
    1.4376   -1.7249   -1.2339 H   0  0  0  0  0  0  0  0  0  0  0  0
    4.0338   -1.4386   -0.4376 H   0  0  0  0  0  0  0  0  0  0  0  0
    4.0517    0.9272    0.9911 H   0  0  0  0  0  0  0  0  0  0  0  0
  1  3  1  0  0  0  0
  1  4  1  0  0  0  0
  2  7  1  0  0  0  0
  2 10  1  0  0  0  0
  3  5  1  0  0  0  0
  3  6  1  0  0  0  0
  3 11  1  0  0  0  0
  4  7  1  0  0  0  0
  4 12  1  0  0  0  0
  4 13  1  0  0  0  0
  5 14  1  0  0  0  0
  5 15  1  0  0  0  0
  5 16  1  0  0  0  0
  6 17  1  0  0  0  0
  6 18  1  0  0  0  0
  6 19  1  0  0  0  0
  7  8  2  0  0  0  0
  8  9  1  0  0  0  0
  8 20  1  0  0  0  0
  9 10  2  0  0  0  0
  9 21  1  0  0  0  0
 10 22  1  0  0  0  0
M  END
> <PUBCHEM_COMPOUND_CID>
61282

> <PUBCHEM_CONFORMER_RMSD>
0.6

> <PUBCHEM_CONFORMER_DIVERSEORDER>
1
4
13
11
5
2
3
14
8
10
6
9
7
12

> <PUBCHEM_MMFF94_PARTIAL_CHARGES>
11
1 -0.46
10 -0.01
2 -0.28
20 0.15
21 0.15
22 0.15
3 0.23
4 0.41
7 -0.04
8 -0.15
9 -0.15

> <PUBCHEM_EFFECTIVE_ROTOR_COUNT>
3

> <PUBCHEM_PHARMACOPHORE_FEATURES>
3
1 2 acceptor
3 3 5 6 hydrophobe
5 2 7 8 9 10 rings

> <PUBCHEM_HEAVY_ATOM_COUNT>
10

> <PUBCHEM_ATOM_DEF_STEREO_COUNT>
0

> <PUBCHEM_ATOM_UDEF_STEREO_COUNT>
0

> <PUBCHEM_BOND_DEF_STEREO_COUNT>
0

> <PUBCHEM_BOND_UDEF_STEREO_COUNT>
0

> <PUBCHEM_ISOTOPIC_ATOM_COUNT>
0

> <PUBCHEM_COMPONENT_COUNT>
1

> <PUBCHEM_CACTVS_TAUTO_COUNT>
1

> <PUBCHEM_CONFORMER_ID>
0000EF6200000001

> <PUBCHEM_MMFF94_ENERGY>
9.613

> <PUBCHEM_FEATURE_SELFOVERLAP>
15.223

> <PUBCHEM_SHAPE_FINGERPRINT>
10219947 1 18131069333494125644
11062470 55 16774081765096332691
12932764 1 18260261958347837611
13296908 3 18334013882608299495
14325111 11 18343303664983518035
15775835 57 16128659647714683351
18186145 218 18410576158615938547
190213 19 14273738464532994995
1986462 14 17603586305433629871
20201158 50 18412263917391160826
20279233 1 18333726910168505991
20645477 70 18129655288579421567
20711983 171 15213294188888629239
20871998 22 17129033676940328494
23402655 69 17846779572598888169
3248919 1 18342176669670221329
449060 50 18339644550526903264
57812782 119 18333729126455955211

> <PUBCHEM_SHAPE_MULTIPOLES>
203.78
7.2
1.01
0.96
2.6
0.02
0.07
-0.77
-0.18
0.68
0.08
-0.33
0.05
0.66

> <PUBCHEM_SHAPE_SELFOVERLAP>
390.876

> <PUBCHEM_SHAPE_VOLUME>
127.7

> <PUBCHEM_COORDINATE_TYPE>
2
5
10

$$$$
