61283
  -OEChem-11232109023D

 24 24  0     0  0  0  0  0  0999 V2000
   -3.8520    0.7479   -0.0881 O   0  0  0  0  0  0  0  0  0  0  0  0
    0.8914   -0.3505    0.0392 C   0  0  0  0  0  0  0  0  0  0  0  0
   -1.5166    0.3093   -0.0271 C   0  0  0  0  0  0  0  0  0  0  0  0
   -0.5510   -0.6227    0.0728 C   0  0  0  0  0  0  0  0  0  0  0  0
    1.5614   -0.3625   -1.1765 C   0  0  0  0  0  0  0  0  0  0  0  0
    1.5650   -0.0844    1.2233 C   0  0  0  0  0  0  0  0  0  0  0  0
   -1.2846    1.7904   -0.1581 C   0  0  0  0  0  0  0  0  0  0  0  0
   -2.9661   -0.1038    0.0059 C   0  0  0  0  0  0  0  0  0  0  0  0
    2.9317   -0.1033   -1.2086 C   0  0  0  0  0  0  0  0  0  0  0  0
    2.9352    0.1748    1.1913 C   0  0  0  0  0  0  0  0  0  0  0  0
    3.6185    0.1653   -0.0248 C   0  0  0  0  0  0  0  0  0  0  0  0
   -3.3329   -1.5605    0.1507 C   0  0  0  0  0  0  0  0  0  0  0  0
   -0.7799   -1.6795    0.1726 H   0  0  0  0  0  0  0  0  0  0  0  0
    1.0381   -0.5704   -2.1062 H   0  0  0  0  0  0  0  0  0  0  0  0
    1.0446   -0.0741    2.1776 H   0  0  0  0  0  0  0  0  0  0  0  0
   -1.7461    2.3223    0.6807 H   0  0  0  0  0  0  0  0  0  0  0  0
   -0.2252    2.0613   -0.1702 H   0  0  0  0  0  0  0  0  0  0  0  0
   -1.7249    2.1617   -1.0898 H   0  0  0  0  0  0  0  0  0  0  0  0
    3.4637   -0.1107   -2.1554 H   0  0  0  0  0  0  0  0  0  0  0  0
    3.4701    0.3841    2.1131 H   0  0  0  0  0  0  0  0  0  0  0  0
    4.6854    0.3672   -0.0498 H   0  0  0  0  0  0  0  0  0  0  0  0
   -2.9486   -2.1344   -0.6965 H   0  0  0  0  0  0  0  0  0  0  0  0
   -4.4233   -1.6576    0.1571 H   0  0  0  0  0  0  0  0  0  0  0  0
   -2.9546   -1.9547    1.0974 H   0  0  0  0  0  0  0  0  0  0  0  0
  1  8  2  0  0  0  0
  2  4  1  0  0  0  0
  2  5  2  0  0  0  0
  2  6  1  0  0  0  0
  3  4  2  3  0  0  0
  3  7  1  0  0  0  0
  3  8  1  0  0  0  0
  4 13  1  0  0  0  0
  5  9  1  0  0  0  0
  5 14  1  0  0  0  0
  6 10  2  0  0  0  0
  6 15  1  0  0  0  0
  7 16  1  0  0  0  0
  7 17  1  0  0  0  0
  7 18  1  0  0  0  0
  8 12  1  0  0  0  0
  9 11  2  0  0  0  0
  9 19  1  0  0  0  0
 10 11  1  0  0  0  0
 10 20  1  0  0  0  0
 11 21  1  0  0  0  0
 12 22  1  0  0  0  0
 12 23  1  0  0  0  0
 12 24  1  0  0  0  0
M  END
> <PUBCHEM_COMPOUND_CID>
61283

> <PUBCHEM_CONFORMER_RMSD>
0.6

> <PUBCHEM_CONFORMER_DIVERSEORDER>
1
4
2
3

> <PUBCHEM_MMFF94_PARTIAL_CHARGES>
18
1 -0.57
10 -0.15
11 -0.15
12 0.06
13 0.15
14 0.15
15 0.15
19 0.15
2 0.03
20 0.15
21 0.15
3 -0.12
4 -0.18
5 -0.15
6 -0.15
7 0.14
8 0.49
9 -0.15

> <PUBCHEM_EFFECTIVE_ROTOR_COUNT>
2

> <PUBCHEM_PHARMACOPHORE_FEATURES>
3
1 1 acceptor
1 7 hydrophobe
6 2 5 6 9 10 11 rings

> <PUBCHEM_HEAVY_ATOM_COUNT>
12

> <PUBCHEM_ATOM_DEF_STEREO_COUNT>
0

> <PUBCHEM_ATOM_UDEF_STEREO_COUNT>
0

> <PUBCHEM_BOND_DEF_STEREO_COUNT>
0

> <PUBCHEM_BOND_UDEF_STEREO_COUNT>
1

> <PUBCHEM_ISOTOPIC_ATOM_COUNT>
0

> <PUBCHEM_COMPONENT_COUNT>
1

> <PUBCHEM_CACTVS_TAUTO_COUNT>
2

> <PUBCHEM_CONFORMER_ID>
0000EF6300000001

> <PUBCHEM_MMFF94_ENERGY>
30.5514

> <PUBCHEM_FEATURE_SELFOVERLAP>
15.223

> <PUBCHEM_SHAPE_FINGERPRINT>
10219947 1 16200434671543363888
10857977 72 18341891922244805763
11031198 65 16486975141489238736
11062470 55 16443062790079806165
11471102 20 16343983602704497936
12932764 1 17775278348539893398
13296908 3 18060139855661208007
14144814 61 16298104272132203768
14993402 34 16877663474294575474
15219456 202 17632858641827613766
15775835 57 17023192634101919660
17844478 74 17775570840102378513
18175812 5 17917992793309257613
18186145 218 17203336601869358926
200 152 16515675667538883183
20201158 50 17274825739937654510
20279233 1 17989486320786871103
20645477 70 16414920738305979301
21639500 275 15647341912779476414
21730867 7 17060337426970285070
22802520 49 17487344733443850216
23402539 116 18408879650971462846
23402655 69 15719382936812633079
23557571 272 18343022172727068797
23559900 14 18341052934991450470
3248919 1 17313107440445010611
77492 1 17458345238456256395

> <PUBCHEM_SHAPE_MULTIPOLES>
241.09
6.64
1.19
1.11
1.92
0.23
-0.02
-0.38
-0.01
1.16
0.04
-1.07
-0.05
0.28

> <PUBCHEM_SHAPE_SELFOVERLAP>
494.855

> <PUBCHEM_SHAPE_VOLUME>
139.6

> <PUBCHEM_COORDINATE_TYPE>
2
5
10

$$$$
