61294
  -OEChem-11232108583D

 50 49  0     0  0  0  0  0  0999 V2000
   -2.9489   -1.3901    0.5508 O   0  0  0  0  0  0  0  0  0  0  0  0
   -4.0026   -0.5396   -1.3165 O   0  0  0  0  0  0  0  0  0  0  0  0
    1.1784   -1.9262   -0.5288 C   0  0  0  0  0  0  0  0  0  0  0  0
    2.3356   -1.6896    0.4460 C   0  0  0  0  0  0  0  0  0  0  0  0
   -0.1668   -2.1486    0.1663 C   0  0  0  0  0  0  0  0  0  0  0  0
   -1.6994    1.9293    0.1107 C   0  0  0  0  0  0  0  0  0  0  0  0
   -0.3956    2.5224    0.6485 C   0  0  0  0  0  0  0  0  0  0  0  0
    3.6929   -1.5407   -0.2450 C   0  0  0  0  0  0  0  0  0  0  0  0
   -1.2793   -2.4023   -0.8501 C   0  0  0  0  0  0  0  0  0  0  0  0
   -2.5705    1.3829    1.2463 C   0  0  0  0  0  0  0  0  0  0  0  0
    0.4905    3.0386   -0.4866 C   0  0  0  0  0  0  0  0  0  0  0  0
   -3.8692    0.7579    0.7370 C   0  0  0  0  0  0  0  0  0  0  0  0
    4.8192   -1.3795    0.7771 C   0  0  0  0  0  0  0  0  0  0  0  0
   -2.6296   -2.5839   -0.1715 C   0  0  0  0  0  0  0  0  0  0  0  0
    1.8075    3.6006    0.0478 C   0  0  0  0  0  0  0  0  0  0  0  0
   -3.6430   -0.4458   -0.1509 C   0  0  0  0  0  0  0  0  0  0  0  0
    6.1754   -1.2693    0.0987 C   0  0  0  0  0  0  0  0  0  0  0  0
    2.7053    4.0839   -1.0799 C   0  0  0  0  0  0  0  0  0  0  0  0
    1.4091   -2.7997   -1.1512 H   0  0  0  0  0  0  0  0  0  0  0  0
    1.1008   -1.0662   -1.2056 H   0  0  0  0  0  0  0  0  0  0  0  0
    2.1282   -0.7898    1.0384 H   0  0  0  0  0  0  0  0  0  0  0  0
    2.3817   -2.5290    1.1510 H   0  0  0  0  0  0  0  0  0  0  0  0
   -0.3991   -1.2675    0.7757 H   0  0  0  0  0  0  0  0  0  0  0  0
   -0.0905   -3.0028    0.8496 H   0  0  0  0  0  0  0  0  0  0  0  0
   -2.2546    2.6965   -0.4422 H   0  0  0  0  0  0  0  0  0  0  0  0
   -1.4612    1.1277   -0.5982 H   0  0  0  0  0  0  0  0  0  0  0  0
   -0.6211    3.3413    1.3422 H   0  0  0  0  0  0  0  0  0  0  0  0
    0.1473    1.7566    1.2163 H   0  0  0  0  0  0  0  0  0  0  0  0
    3.8851   -2.4239   -0.8661 H   0  0  0  0  0  0  0  0  0  0  0  0
    3.6705   -0.6725   -0.9145 H   0  0  0  0  0  0  0  0  0  0  0  0
   -1.3264   -1.5564   -1.5462 H   0  0  0  0  0  0  0  0  0  0  0  0
   -1.0477   -3.2986   -1.4369 H   0  0  0  0  0  0  0  0  0  0  0  0
   -2.0000    0.6465    1.8247 H   0  0  0  0  0  0  0  0  0  0  0  0
   -2.8213    2.1996    1.9340 H   0  0  0  0  0  0  0  0  0  0  0  0
   -0.0429    3.8165   -1.0462 H   0  0  0  0  0  0  0  0  0  0  0  0
    0.6996    2.2215   -1.1880 H   0  0  0  0  0  0  0  0  0  0  0  0
   -4.4989    0.4448    1.5776 H   0  0  0  0  0  0  0  0  0  0  0  0
   -4.4434    1.4976    0.1671 H   0  0  0  0  0  0  0  0  0  0  0  0
    4.6449   -0.4835    1.3841 H   0  0  0  0  0  0  0  0  0  0  0  0
    4.8295   -2.2373    1.4597 H   0  0  0  0  0  0  0  0  0  0  0  0
   -2.5875   -3.4040    0.5533 H   0  0  0  0  0  0  0  0  0  0  0  0
   -3.4095   -2.8390   -0.8982 H   0  0  0  0  0  0  0  0  0  0  0  0
    2.3362    2.8298    0.6208 H   0  0  0  0  0  0  0  0  0  0  0  0
    1.6068    4.4333    0.7319 H   0  0  0  0  0  0  0  0  0  0  0  0
    6.3940   -2.1662   -0.4896 H   0  0  0  0  0  0  0  0  0  0  0  0
    6.9653   -1.1530    0.8472 H   0  0  0  0  0  0  0  0  0  0  0  0
    6.2100   -0.4028   -0.5695 H   0  0  0  0  0  0  0  0  0  0  0  0
    2.2186    4.8771   -1.6564 H   0  0  0  0  0  0  0  0  0  0  0  0
    2.9528    3.2648   -1.7627 H   0  0  0  0  0  0  0  0  0  0  0  0
    3.6407    4.4830   -0.6752 H   0  0  0  0  0  0  0  0  0  0  0  0
  1 14  1  0  0  0  0
  1 16  1  0  0  0  0
  2 16  2  0  0  0  0
  3  4  1  0  0  0  0
  3  5  1  0  0  0  0
  3 19  1  0  0  0  0
  3 20  1  0  0  0  0
  4  8  1  0  0  0  0
  4 21  1  0  0  0  0
  4 22  1  0  0  0  0
  5  9  1  0  0  0  0
  5 23  1  0  0  0  0
  5 24  1  0  0  0  0
  6  7  1  0  0  0  0
  6 10  1  0  0  0  0
  6 25  1  0  0  0  0
  6 26  1  0  0  0  0
  7 11  1  0  0  0  0
  7 27  1  0  0  0  0
  7 28  1  0  0  0  0
  8 13  1  0  0  0  0
  8 29  1  0  0  0  0
  8 30  1  0  0  0  0
  9 14  1  0  0  0  0
  9 31  1  0  0  0  0
  9 32  1  0  0  0  0
 10 12  1  0  0  0  0
 10 33  1  0  0  0  0
 10 34  1  0  0  0  0
 11 15  1  0  0  0  0
 11 35  1  0  0  0  0
 11 36  1  0  0  0  0
 12 16  1  0  0  0  0
 12 37  1  0  0  0  0
 12 38  1  0  0  0  0
 13 17  1  0  0  0  0
 13 39  1  0  0  0  0
 13 40  1  0  0  0  0
 14 41  1  0  0  0  0
 14 42  1  0  0  0  0
 15 18  1  0  0  0  0
 15 43  1  0  0  0  0
 15 44  1  0  0  0  0
 17 45  1  0  0  0  0
 17 46  1  0  0  0  0
 17 47  1  0  0  0  0
 18 48  1  0  0  0  0
 18 49  1  0  0  0  0
 18 50  1  0  0  0  0
M  END
> <PUBCHEM_COMPOUND_CID>
61294

> <PUBCHEM_CONFORMER_RMSD>
1.4

> <PUBCHEM_CONFORMER_DIVERSEORDER>
2
37
1
11
17
21
30
12
24
45
20
15
27
41
32
42
49
6
43
35
5
4
18
10
50
36
46
51
26
39
13
28
22
48
23
44
33
34
38
14
9
47
31
25
8
40
16
3
7
19
29

> <PUBCHEM_MMFF94_PARTIAL_CHARGES>
5
1 -0.43
12 0.06
14 0.28
16 0.66
2 -0.57

> <PUBCHEM_EFFECTIVE_ROTOR_COUNT>
14

> <PUBCHEM_PHARMACOPHORE_FEATURES>
7
1 17 hydrophobe
1 18 hydrophobe
1 2 acceptor
3 3 5 9 hydrophobe
3 4 8 13 hydrophobe
3 6 10 12 hydrophobe
3 7 11 15 hydrophobe

> <PUBCHEM_HEAVY_ATOM_COUNT>
18

> <PUBCHEM_ATOM_DEF_STEREO_COUNT>
0

> <PUBCHEM_ATOM_UDEF_STEREO_COUNT>
0

> <PUBCHEM_BOND_DEF_STEREO_COUNT>
0

> <PUBCHEM_BOND_UDEF_STEREO_COUNT>
0

> <PUBCHEM_ISOTOPIC_ATOM_COUNT>
0

> <PUBCHEM_COMPONENT_COUNT>
1

> <PUBCHEM_CACTVS_TAUTO_COUNT>
1

> <PUBCHEM_CONFORMER_ID>
0000EF6E00000002

> <PUBCHEM_MMFF94_ENERGY>
-1.2919

> <PUBCHEM_FEATURE_SELFOVERLAP>
35.551

> <PUBCHEM_SHAPE_FINGERPRINT>
10087517 78 18340759374330346170
10498660 4 18051410673908182679
11595378 159 18116698626863240786
13941206 138 17468210280768400228
14117953 113 18050572845853015708
15322534 239 17904498642374968148
167882 2 18264202681268573445
18336668 15 18114185216196173444
20765182 5 18341051831184809680
23402539 116 18271516503503945270
3524813 1 17988349369792201794
5282940 2 18193000537178211356

> <PUBCHEM_SHAPE_MULTIPOLES>
358.69
9.59
5.35
1.03
10.34
5.87
-0.04
-5.12
0.97
2.82
-1.21
-0.33
0.22
-1.67

> <PUBCHEM_SHAPE_SELFOVERLAP>
654.331

> <PUBCHEM_SHAPE_VOLUME>
228.2

> <PUBCHEM_COORDINATE_TYPE>
2
5
10

$$$$
