61295
  -OEChem-11232109423D

 17 16  0     0  0  0  0  0  0999 V2000
    0.3856   -0.9867   -0.0098 S   0  0  0  0  0  0  0  0  0  0  0  0
    1.6166    1.3529    0.0006 O   0  0  0  0  0  0  0  0  0  0  0  0
   -2.3298   -0.5558    0.0092 C   0  0  0  0  0  0  0  0  0  0  0  0
   -0.9989    0.1874   -0.0176 C   0  0  0  0  0  0  0  0  0  0  0  0
   -3.5004    0.4164    0.0070 C   0  0  0  0  0  0  0  0  0  0  0  0
    1.7445    0.1346    0.0011 C   0  0  0  0  0  0  0  0  0  0  0  0
    3.0824   -0.5488    0.0094 C   0  0  0  0  0  0  0  0  0  0  0  0
   -2.4173   -1.2141   -0.8637 H   0  0  0  0  0  0  0  0  0  0  0  0
   -2.3977   -1.1859    0.9044 H   0  0  0  0  0  0  0  0  0  0  0  0
   -0.9331    0.8098   -0.9164 H   0  0  0  0  0  0  0  0  0  0  0  0
   -0.9179    0.8400    0.8584 H   0  0  0  0  0  0  0  0  0  0  0  0
   -3.4884    1.0431   -0.8906 H   0  0  0  0  0  0  0  0  0  0  0  0
   -4.4478   -0.1313    0.0260 H   0  0  0  0  0  0  0  0  0  0  0  0
   -3.4687    1.0708    0.8840 H   0  0  0  0  0  0  0  0  0  0  0  0
    3.2013   -1.1607   -0.8891 H   0  0  0  0  0  0  0  0  0  0  0  0
    3.1874   -1.1664    0.9056 H   0  0  0  0  0  0  0  0  0  0  0  0
    3.8735    0.2072    0.0181 H   0  0  0  0  0  0  0  0  0  0  0  0
  1  4  1  0  0  0  0
  1  6  1  0  0  0  0
  2  6  2  0  0  0  0
  3  4  1  0  0  0  0
  3  5  1  0  0  0  0
  3  8  1  0  0  0  0
  3  9  1  0  0  0  0
  4 10  1  0  0  0  0
  4 11  1  0  0  0  0
  5 12  1  0  0  0  0
  5 13  1  0  0  0  0
  5 14  1  0  0  0  0
  6  7  1  0  0  0  0
  7 15  1  0  0  0  0
  7 16  1  0  0  0  0
  7 17  1  0  0  0  0
M  END
> <PUBCHEM_COMPOUND_CID>
61295

> <PUBCHEM_CONFORMER_RMSD>
0.4

> <PUBCHEM_CONFORMER_DIVERSEORDER>
1
34
13
11
3
19
33
2
17
31
36
16
32
25
38
18
15
14
35
26
30
8
22
4
37
29
23
5
6
24
27
28
10
12
9
21
7
20

> <PUBCHEM_MMFF94_PARTIAL_CHARGES>
5
1 -0.37
2 -0.57
4 0.23
6 0.65
7 0.06

> <PUBCHEM_EFFECTIVE_ROTOR_COUNT>
3

> <PUBCHEM_PHARMACOPHORE_FEATURES>
1
1 5 hydrophobe

> <PUBCHEM_HEAVY_ATOM_COUNT>
7

> <PUBCHEM_ATOM_DEF_STEREO_COUNT>
0

> <PUBCHEM_ATOM_UDEF_STEREO_COUNT>
0

> <PUBCHEM_BOND_DEF_STEREO_COUNT>
0

> <PUBCHEM_BOND_UDEF_STEREO_COUNT>
0

> <PUBCHEM_ISOTOPIC_ATOM_COUNT>
0

> <PUBCHEM_COMPONENT_COUNT>
1

> <PUBCHEM_CACTVS_TAUTO_COUNT>
1

> <PUBCHEM_CONFORMER_ID>
0000EF6F00000001

> <PUBCHEM_MMFF94_ENERGY>
2.5513

> <PUBCHEM_FEATURE_SELFOVERLAP>
5.074

> <PUBCHEM_SHAPE_FINGERPRINT>
11062470 55 13470684841055031459
12932764 1 17167850985301402859
14325111 11 18410856602758365031
14390081 3 18411979174382057921
3248919 1 16845584131511029367
5460574 1 9295289438949733959

> <PUBCHEM_SHAPE_MULTIPOLES>
142.04
5.44
1.09
0.62
1.99
0.1
0
0.27
-0.03
-0.32
0
0.02
-0.03
0

> <PUBCHEM_SHAPE_SELFOVERLAP>
238.826

> <PUBCHEM_SHAPE_VOLUME>
97

> <PUBCHEM_COORDINATE_TYPE>
2
5
10

$$$$
