61302
  -OEChem-11232109133D

 25 25  0     1  0  0  0  0  0999 V2000
    3.4195   -1.0380   -0.5576 O   0  0  0  0  0  0  0  0  0  0  0  0
    1.5948    0.2624    0.3288 C   0  0  0  0  0  0  0  0  0  0  0  0
    0.6448   -0.0934   -0.8224 C   0  0  0  0  0  0  0  0  0  0  0  0
    3.0606    0.2679   -0.1150 C   0  0  1  0  0  0  0  0  0  0  0  0
   -0.7970   -0.0506   -0.3810 C   0  0  0  0  0  0  0  0  0  0  0  0
    3.9816    0.6695    1.0293 C   0  0  0  0  0  0  0  0  0  0  0  0
   -1.3872   -1.1972    0.1283 C   0  0  0  0  0  0  0  0  0  0  0  0
   -1.5080    1.1346   -0.4924 C   0  0  0  0  0  0  0  0  0  0  0  0
   -2.7205   -1.1575    0.5361 C   0  0  0  0  0  0  0  0  0  0  0  0
   -2.8412    1.1743   -0.0842 C   0  0  0  0  0  0  0  0  0  0  0  0
   -3.4475    0.0282    0.4301 C   0  0  0  0  0  0  0  0  0  0  0  0
    1.4597   -0.4681    1.1374 H   0  0  0  0  0  0  0  0  0  0  0  0
    1.3321    1.2468    0.7362 H   0  0  0  0  0  0  0  0  0  0  0  0
    0.7926    0.6005   -1.6599 H   0  0  0  0  0  0  0  0  0  0  0  0
    0.8748   -1.0911   -1.2173 H   0  0  0  0  0  0  0  0  0  0  0  0
    3.1933    0.9589   -0.9551 H   0  0  0  0  0  0  0  0  0  0  0  0
    3.7420    1.6706    1.4004 H   0  0  0  0  0  0  0  0  0  0  0  0
    5.0265    0.6617    0.7009 H   0  0  0  0  0  0  0  0  0  0  0  0
    3.9081   -0.0412    1.8598 H   0  0  0  0  0  0  0  0  0  0  0  0
   -0.8288   -2.1247    0.2168 H   0  0  0  0  0  0  0  0  0  0  0  0
   -1.0440    2.0328   -0.8898 H   0  0  0  0  0  0  0  0  0  0  0  0
    4.3463   -1.0044   -0.8503 H   0  0  0  0  0  0  0  0  0  0  0  0
   -3.1926   -2.0497    0.9371 H   0  0  0  0  0  0  0  0  0  0  0  0
   -3.4071    2.0976   -0.1664 H   0  0  0  0  0  0  0  0  0  0  0  0
   -4.4855    0.0591    0.7481 H   0  0  0  0  0  0  0  0  0  0  0  0
  1  4  1  0  0  0  0
  1 22  1  0  0  0  0
  2  3  1  0  0  0  0
  2  4  1  0  0  0  0
  2 12  1  0  0  0  0
  2 13  1  0  0  0  0
  3  5  1  0  0  0  0
  3 14  1  0  0  0  0
  3 15  1  0  0  0  0
  4  6  1  0  0  0  0
  4 16  1  0  0  0  0
  5  7  2  0  0  0  0
  5  8  1  0  0  0  0
  6 17  1  0  0  0  0
  6 18  1  0  0  0  0
  6 19  1  0  0  0  0
  7  9  1  0  0  0  0
  7 20  1  0  0  0  0
  8 10  2  0  0  0  0
  8 21  1  0  0  0  0
  9 11  2  0  0  0  0
  9 23  1  0  0  0  0
 10 11  1  0  0  0  0
 10 24  1  0  0  0  0
 11 25  1  0  0  0  0
M  END
> <PUBCHEM_COMPOUND_CID>
61302

> <PUBCHEM_CONFORMER_RMSD>
0.6

> <PUBCHEM_CONFORMER_DIVERSEORDER>
1
13
6
4
9
14
2
8
5
3
11
12
10
7

> <PUBCHEM_MMFF94_PARTIAL_CHARGES>
15
1 -0.68
10 -0.15
11 -0.15
20 0.15
21 0.15
22 0.4
23 0.15
24 0.15
25 0.15
3 0.14
4 0.28
5 -0.14
7 -0.15
8 -0.15
9 -0.15

> <PUBCHEM_EFFECTIVE_ROTOR_COUNT>
3

> <PUBCHEM_PHARMACOPHORE_FEATURES>
3
1 1 acceptor
1 1 donor
6 5 7 8 9 10 11 rings

> <PUBCHEM_HEAVY_ATOM_COUNT>
11

> <PUBCHEM_ATOM_DEF_STEREO_COUNT>
0

> <PUBCHEM_ATOM_UDEF_STEREO_COUNT>
1

> <PUBCHEM_BOND_DEF_STEREO_COUNT>
0

> <PUBCHEM_BOND_UDEF_STEREO_COUNT>
0

> <PUBCHEM_ISOTOPIC_ATOM_COUNT>
0

> <PUBCHEM_COMPONENT_COUNT>
1

> <PUBCHEM_CACTVS_TAUTO_COUNT>
1

> <PUBCHEM_CONFORMER_ID>
0000EF7600000001

> <PUBCHEM_MMFF94_ENERGY>
21.219

> <PUBCHEM_FEATURE_SELFOVERLAP>
15.223

> <PUBCHEM_SHAPE_FINGERPRINT>
10608611 8 18342173345508218800
11132069 177 18334574646376004797
12251169 10 18335702775275987004
124424 183 18202280269197802568
12932764 1 17846497058487661198
13024252 1 13551187784607338469
14144814 61 18113334197973984656
14325111 11 18411419496850740388
15219456 202 18272655618987786190
18186145 218 16630529548638651564
190213 19 17676487246048322358
20279233 1 18343580746314277414
20361792 2 15864066598248753366
20528008 55 18412822490967872013
20645464 45 18273220785365787343
20645477 70 17560519500183660254
20715346 28 18272370871451581436
20871998 184 18340777051914771439
22485316 2 14201398304507115912
23402539 116 18412254061295635791
3248919 1 18260824925618128990
369184 2 18060701693249618239
43471831 8 17967811613703990923
449060 50 18271243915167698936

> <PUBCHEM_SHAPE_MULTIPOLES>
220.51
7.02
1.24
0.88
4.9
0.06
-0.04
-0.3
-1.63
-0.68
0.01
0.37
-0.02
0.59

> <PUBCHEM_SHAPE_SELFOVERLAP>
441.61

> <PUBCHEM_SHAPE_VOLUME>
130.5

> <PUBCHEM_COORDINATE_TYPE>
2
5
10

$$$$
