61304
  -OEChem-11232109473D

 35 34  0     0  0  0  0  0  0999 V2000
   -1.8057    0.2458    0.1773 O   0  0  0  0  0  0  0  0  0  0  0  0
   -3.1404   -1.5088   -0.5006 O   0  0  0  0  0  0  0  0  0  0  0  0
    3.1092    0.4096    0.2314 C   0  0  0  0  0  0  0  0  0  0  0  0
    1.8791   -0.4264   -0.1283 C   0  0  0  0  0  0  0  0  0  0  0  0
    4.4343   -0.2941   -0.0750 C   0  0  0  0  0  0  0  0  0  0  0  0
    0.5873    0.3312    0.1753 C   0  0  0  0  0  0  0  0  0  0  0  0
    5.6626    0.5693    0.2154 C   0  0  0  0  0  0  0  0  0  0  0  0
   -0.6433   -0.5074   -0.1397 C   0  0  0  0  0  0  0  0  0  0  0  0
   -4.1476    0.5501    0.3199 C   0  0  0  0  0  0  0  0  0  0  0  0
    6.9476   -0.1469   -0.1722 C   0  0  0  0  0  0  0  0  0  0  0  0
   -3.0046   -0.3777   -0.0528 C   0  0  0  0  0  0  0  0  0  0  0  0
   -4.5336    1.4005   -0.8846 C   0  0  0  0  0  0  0  0  0  0  0  0
   -5.3450   -0.2452    0.8338 C   0  0  0  0  0  0  0  0  0  0  0  0
    3.0779    0.6645    1.2979 H   0  0  0  0  0  0  0  0  0  0  0  0
    3.0726    1.3568   -0.3213 H   0  0  0  0  0  0  0  0  0  0  0  0
    1.8999   -1.3657    0.4373 H   0  0  0  0  0  0  0  0  0  0  0  0
    1.9108   -0.6884   -1.1927 H   0  0  0  0  0  0  0  0  0  0  0  0
    4.4936   -1.2205    0.5097 H   0  0  0  0  0  0  0  0  0  0  0  0
    4.4436   -0.5870   -1.1324 H   0  0  0  0  0  0  0  0  0  0  0  0
    0.5495    1.2646   -0.4001 H   0  0  0  0  0  0  0  0  0  0  0  0
    0.5611    0.6287    1.2312 H   0  0  0  0  0  0  0  0  0  0  0  0
    5.5949    1.5110   -0.3413 H   0  0  0  0  0  0  0  0  0  0  0  0
    5.6937    0.8229    1.2812 H   0  0  0  0  0  0  0  0  0  0  0  0
   -0.6324   -1.4280    0.4556 H   0  0  0  0  0  0  0  0  0  0  0  0
   -0.6562   -0.7687   -1.2043 H   0  0  0  0  0  0  0  0  0  0  0  0
   -3.8083    1.2011    1.1353 H   0  0  0  0  0  0  0  0  0  0  0  0
    7.0595   -1.0815    0.3869 H   0  0  0  0  0  0  0  0  0  0  0  0
    7.8140    0.4853    0.0459 H   0  0  0  0  0  0  0  0  0  0  0  0
    6.9591   -0.3819   -1.2412 H   0  0  0  0  0  0  0  0  0  0  0  0
   -5.3395    2.0967   -0.6302 H   0  0  0  0  0  0  0  0  0  0  0  0
   -4.8702    0.7769   -1.7202 H   0  0  0  0  0  0  0  0  0  0  0  0
   -3.6781    1.9868   -1.2374 H   0  0  0  0  0  0  0  0  0  0  0  0
   -6.1451    0.4256    1.1637 H   0  0  0  0  0  0  0  0  0  0  0  0
   -5.0570   -0.8743    1.6831 H   0  0  0  0  0  0  0  0  0  0  0  0
   -5.7521   -0.9037    0.0584 H   0  0  0  0  0  0  0  0  0  0  0  0
  1  8  1  0  0  0  0
  1 11  1  0  0  0  0
  2 11  2  0  0  0  0
  3  4  1  0  0  0  0
  3  5  1  0  0  0  0
  3 14  1  0  0  0  0
  3 15  1  0  0  0  0
  4  6  1  0  0  0  0
  4 16  1  0  0  0  0
  4 17  1  0  0  0  0
  5  7  1  0  0  0  0
  5 18  1  0  0  0  0
  5 19  1  0  0  0  0
  6  8  1  0  0  0  0
  6 20  1  0  0  0  0
  6 21  1  0  0  0  0
  7 10  1  0  0  0  0
  7 22  1  0  0  0  0
  7 23  1  0  0  0  0
  8 24  1  0  0  0  0
  8 25  1  0  0  0  0
  9 11  1  0  0  0  0
  9 12  1  0  0  0  0
  9 13  1  0  0  0  0
  9 26  1  0  0  0  0
 10 27  1  0  0  0  0
 10 28  1  0  0  0  0
 10 29  1  0  0  0  0
 12 30  1  0  0  0  0
 12 31  1  0  0  0  0
 12 32  1  0  0  0  0
 13 33  1  0  0  0  0
 13 34  1  0  0  0  0
 13 35  1  0  0  0  0
M  END
> <PUBCHEM_COMPOUND_CID>
61304

> <PUBCHEM_CONFORMER_RMSD>
0.8

> <PUBCHEM_CONFORMER_DIVERSEORDER>
1
350
239
338
102
159
294
78
142
225
20
206
91
284
202
124
176
275
7
285
194
46
260
219
39
215
104
28
253
327
276
4
262
50
155
237
145
110
208
341
123
261
21
286
288
54
166
312
73
10
334
128
203
43
99
271
179
211
313
315
212
190
14
330
23
45
5
352
324
163
361
8
290
321
255
26
29
296
63
41
238
217
98
320
58
173
305
90
19
205
302
289
257
258
343
303
172
273
348
17
168
181
80
62
131
332
354
301
250
152
27
55
114
311
2
12
185
139
144
353
52
220
147
229
97
346
129
356
291
232
277
33
254
83
295
365
149
297
121
282
266
60
153
136
360
263
9
169
280
15
306
200
37
268
256
137
40
364
103
340
44
308
92
79
252
112
246
61
143
231
224
204
134
100
189
316
47
187
93
351
57
344
178
209
362
235
218
243
183
11
65
214
333
18
164
234
328
274
34
242
115
363
236
151
191
226
3
281
72
67
35
180
201
86
182
69
335
222
88
13
358
6
355
77
101
56
138
245
89
30
161
331
113
162
199
272
241
269
74
207
165
228
298
342
66
292
174
125
122
118
24
347
25
81
329
31
319
22
84
251
244
216
359
307
170
171
175
192
310
283
16
141
71
96
94
85
240
299
304
188
132
49
339
157
326
32
42
133
177
130
148
158
322
116
59
318
64
167
264
75
51
309
127
82
108
87
259
120
184
186
349
36
48
337
336
270
247
156
210
117
76
300
106
111
223
154
213
68
53
249
265
119
38
267
345
278
248
317
233
109
95
197
107
135
150
198
230
126
227
160
287
146
323
357
196
195
279
221
293
325
105
314
193
70
140

> <PUBCHEM_MMFF94_PARTIAL_CHARGES>
5
1 -0.43
11 0.66
2 -0.57
8 0.28
9 0.06

> <PUBCHEM_EFFECTIVE_ROTOR_COUNT>
8

> <PUBCHEM_PHARMACOPHORE_FEATURES>
4
1 10 hydrophobe
1 2 acceptor
3 9 12 13 hydrophobe
5 3 4 5 6 7 hydrophobe

> <PUBCHEM_HEAVY_ATOM_COUNT>
13

> <PUBCHEM_ATOM_DEF_STEREO_COUNT>
0

> <PUBCHEM_ATOM_UDEF_STEREO_COUNT>
0

> <PUBCHEM_BOND_DEF_STEREO_COUNT>
0

> <PUBCHEM_BOND_UDEF_STEREO_COUNT>
0

> <PUBCHEM_ISOTOPIC_ATOM_COUNT>
0

> <PUBCHEM_COMPONENT_COUNT>
1

> <PUBCHEM_CACTVS_TAUTO_COUNT>
1

> <PUBCHEM_CONFORMER_ID>
0000EF7800000001

> <PUBCHEM_MMFF94_ENERGY>
4.2371

> <PUBCHEM_FEATURE_SELFOVERLAP>
20.297

> <PUBCHEM_SHAPE_FINGERPRINT>
10680689 15 18335700563784431059
12091667 2 18259703406245631626
13533116 47 15554172468119477062
14123238 8 12685091488512587944
1420 363 8358255964725926848
14251731 8 18341892991628482384
14251764 46 17489590065152487995
15242439 84 17846776317192649256
15501527 16 18341894108124696594
17834072 33 18410576227741759604
17834072 8 18130784555555851412
17834076 25 17275106128197780027
19489759 90 11455893559161806527
20281389 69 18408039615609021272
20621476 8 17632024052652203528
20645477 56 18411979153012677581
20645477 70 17774448174527943558
220451 1 18410294714152729674
23218964 4 18341892979086354888
23402539 116 18410288125414019228
23559900 14 17774996925656464170
300161 21 18411129230350469746
3545911 37 18344148089708058099
42788 4 18334858320745171176
4463277 17 18261111881432382908
542803 24 17385444319326891460
57583515 80 10879995748453874395
8209 1 18410856563950600625

> <PUBCHEM_SHAPE_MULTIPOLES>
255.8
16.58
1.03
0.76
16.36
0.05
0
1.71
0.56
-1.09
-0.19
-0.53
0.04
0.42

> <PUBCHEM_SHAPE_SELFOVERLAP>
466.354

> <PUBCHEM_SHAPE_VOLUME>
164.2

> <PUBCHEM_COORDINATE_TYPE>
2
5
10

$$$$
