61312
  -OEChem-11232109073D

 24 23  0     0  0  0  0  0  0999 V2000
    2.2181    0.3970   -0.0844 O   0  0  0  0  0  0  0  0  0  0  0  0
    0.6900   -1.2375    0.4753 O   0  0  0  0  0  0  0  0  0  0  0  0
   -0.0139    1.0719    0.1276 C   0  0  0  0  0  0  0  0  0  0  0  0
   -3.8271    0.2376   -0.0008 C   0  0  0  0  0  0  0  0  0  0  0  0
   -1.3940    0.6079    0.4775 C   0  0  0  0  0  0  0  0  0  0  0  0
   -2.4428    0.6944   -0.3542 C   0  0  0  0  0  0  0  0  0  0  0  0
    0.9691   -0.0768    0.2071 C   0  0  0  0  0  0  0  0  0  0  0  0
    3.2669   -0.5767   -0.0650 C   0  0  0  0  0  0  0  0  0  0  0  0
   -4.0427   -1.2200   -0.3775 C   0  0  0  0  0  0  0  0  0  0  0  0
    4.5763    0.1021   -0.4056 C   0  0  0  0  0  0  0  0  0  0  0  0
    0.0214    1.4883   -0.8850 H   0  0  0  0  0  0  0  0  0  0  0  0
    0.2918    1.8431    0.8427 H   0  0  0  0  0  0  0  0  0  0  0  0
   -4.0086    0.3658    1.0731 H   0  0  0  0  0  0  0  0  0  0  0  0
   -4.5561    0.8710   -0.5187 H   0  0  0  0  0  0  0  0  0  0  0  0
   -1.5419    0.2030    1.4761 H   0  0  0  0  0  0  0  0  0  0  0  0
   -2.3024    1.0973   -1.3541 H   0  0  0  0  0  0  0  0  0  0  0  0
    3.3308   -1.0246    0.9330 H   0  0  0  0  0  0  0  0  0  0  0  0
    3.0526   -1.3588   -0.8019 H   0  0  0  0  0  0  0  0  0  0  0  0
   -3.8962   -1.3772   -1.4516 H   0  0  0  0  0  0  0  0  0  0  0  0
   -3.3513   -1.8772    0.1607 H   0  0  0  0  0  0  0  0  0  0  0  0
   -5.0632   -1.5272   -0.1274 H   0  0  0  0  0  0  0  0  0  0  0  0
    5.4018   -0.6151   -0.3998 H   0  0  0  0  0  0  0  0  0  0  0  0
    4.5218    0.5707   -1.3939 H   0  0  0  0  0  0  0  0  0  0  0  0
    4.7954    0.8993    0.3124 H   0  0  0  0  0  0  0  0  0  0  0  0
  1  7  1  0  0  0  0
  1  8  1  0  0  0  0
  2  7  2  0  0  0  0
  3  5  1  0  0  0  0
  3  7  1  0  0  0  0
  3 11  1  0  0  0  0
  3 12  1  0  0  0  0
  4  6  1  0  0  0  0
  4  9  1  0  0  0  0
  4 13  1  0  0  0  0
  4 14  1  0  0  0  0
  5  6  2  3  0  0  0
  5 15  1  0  0  0  0
  6 16  1  0  0  0  0
  8 10  1  0  0  0  0
  8 17  1  0  0  0  0
  8 18  1  0  0  0  0
  9 19  1  0  0  0  0
  9 20  1  0  0  0  0
  9 21  1  0  0  0  0
 10 22  1  0  0  0  0
 10 23  1  0  0  0  0
 10 24  1  0  0  0  0
M  END
> <PUBCHEM_COMPOUND_CID>
61312

> <PUBCHEM_CONFORMER_RMSD>
0.6

> <PUBCHEM_CONFORMER_DIVERSEORDER>
1
111
43
60
22
42
32
65
69
84
71
58
95
103
79
68
92
28
64
59
94
24
26
109
2
76
93
6
97
17
3
100
30
88
89
110
18
5
114
62
25
105
90
113
54
21
104
27
51
57
7
9
91
101
13
23
56
31
99
37
63
4
15
47
34
85
83
81
80
74
78
77
10
86
33
106
75
112
49
8
39
20
19
102
45
73
48
52
55
16
70
72
82
107
108
50
35
46
61
38
96
44
36
14
29
40
11
53
12
67
87
66
41
98

> <PUBCHEM_MMFF94_PARTIAL_CHARGES>
10
1 -0.43
15 0.15
16 0.15
2 -0.57
3 0.2
4 0.14
5 -0.29
6 -0.29
7 0.66
8 0.28

> <PUBCHEM_EFFECTIVE_ROTOR_COUNT>
5

> <PUBCHEM_PHARMACOPHORE_FEATURES>
2
1 2 acceptor
1 9 hydrophobe

> <PUBCHEM_HEAVY_ATOM_COUNT>
10

> <PUBCHEM_ATOM_DEF_STEREO_COUNT>
0

> <PUBCHEM_ATOM_UDEF_STEREO_COUNT>
0

> <PUBCHEM_BOND_DEF_STEREO_COUNT>
0

> <PUBCHEM_BOND_UDEF_STEREO_COUNT>
1

> <PUBCHEM_ISOTOPIC_ATOM_COUNT>
0

> <PUBCHEM_COMPONENT_COUNT>
1

> <PUBCHEM_CACTVS_TAUTO_COUNT>
1

> <PUBCHEM_CONFORMER_ID>
0000EF8000000001

> <PUBCHEM_MMFF94_ENERGY>
1.6611

> <PUBCHEM_FEATURE_SELFOVERLAP>
10.148

> <PUBCHEM_SHAPE_FINGERPRINT>
10130415 120 11599999942855379422
11062470 55 12901550139148969268
12032990 46 18273497874822160012
12119455 92 14201111327898825858
12932764 1 15410317854786055856
13690532 89 18334857186947729546
13922767 16 10809347745318209662
14325111 11 18335985268481641720
14993402 34 17749114395989471446
18342897 14 10519985963143087222
18511873 20 10015575112554143844
190213 19 17775002375453192433
20828058 44 17918275346370245119
20871999 31 18041548196968440693
21119208 17 18113897161139349095
21293036 1 18333452040819834996
22485316 2 18342173341197070015
23402539 116 16732978717599155285
23402655 69 18187078408732068221
265663 24 17168139031741425098

> <PUBCHEM_SHAPE_MULTIPOLES>
194.06
8.58
1.14
0.69
2.05
0.17
0
1.77
1.58
-0.61
-0.02
-0.03
0.01
-0.2

> <PUBCHEM_SHAPE_SELFOVERLAP>
355.617

> <PUBCHEM_SHAPE_VOLUME>
123.5

> <PUBCHEM_COORDINATE_TYPE>
2
5
10

$$$$
