61313
  -OEChem-11232109093D

 27 26  0     0  0  0  0  0  0999 V2000
    3.7068   -0.8497   -0.1813 O   0  0  0  0  0  0  0  0  0  0  0  0
    3.0538    1.3666   -0.1802 O   0  0  0  0  0  0  0  0  0  0  0  0
   -3.3829   -0.2157    0.3000 C   0  0  0  0  0  0  0  0  0  0  0  0
   -1.9828    0.2460   -0.1188 C   0  0  0  0  0  0  0  0  0  0  0  0
   -4.4688    0.1514   -0.7147 C   0  0  0  0  0  0  0  0  0  0  0  0
   -0.9015   -0.1176    0.9051 C   0  0  0  0  0  0  0  0  0  0  0  0
   -5.8663   -0.2740   -0.2915 C   0  0  0  0  0  0  0  0  0  0  0  0
    0.4605    0.3929    0.5287 C   0  0  0  0  0  0  0  0  0  0  0  0
    1.5168   -0.4068    0.3304 C   0  0  0  0  0  0  0  0  0  0  0  0
    2.8253    0.1761   -0.0363 C   0  0  0  0  0  0  0  0  0  0  0  0
    5.0391   -0.4692   -0.5413 C   0  0  0  0  0  0  0  0  0  0  0  0
   -3.3769   -1.3032    0.4433 H   0  0  0  0  0  0  0  0  0  0  0  0
   -3.6327    0.2307    1.2705 H   0  0  0  0  0  0  0  0  0  0  0  0
   -1.7302   -0.2010   -1.0887 H   0  0  0  0  0  0  0  0  0  0  0  0
   -1.9948    1.3335   -0.2666 H   0  0  0  0  0  0  0  0  0  0  0  0
   -4.4643    1.2363   -0.8739 H   0  0  0  0  0  0  0  0  0  0  0  0
   -4.2341   -0.3121   -1.6803 H   0  0  0  0  0  0  0  0  0  0  0  0
   -1.1665    0.3120    1.8790 H   0  0  0  0  0  0  0  0  0  0  0  0
   -0.8836   -1.2064    1.0386 H   0  0  0  0  0  0  0  0  0  0  0  0
   -6.5984    0.0127   -1.0528 H   0  0  0  0  0  0  0  0  0  0  0  0
   -5.9196   -1.3591   -0.1579 H   0  0  0  0  0  0  0  0  0  0  0  0
   -6.1502    0.2026    0.6520 H   0  0  0  0  0  0  0  0  0  0  0  0
    0.5590    1.4711    0.4300 H   0  0  0  0  0  0  0  0  0  0  0  0
    1.4368   -1.4841    0.4292 H   0  0  0  0  0  0  0  0  0  0  0  0
    5.0384    0.0425   -1.5086 H   0  0  0  0  0  0  0  0  0  0  0  0
    5.6413   -1.3778   -0.6251 H   0  0  0  0  0  0  0  0  0  0  0  0
    5.4729    0.1697    0.2339 H   0  0  0  0  0  0  0  0  0  0  0  0
  1 10  1  0  0  0  0
  1 11  1  0  0  0  0
  2 10  2  0  0  0  0
  3  4  1  0  0  0  0
  3  5  1  0  0  0  0
  3 12  1  0  0  0  0
  3 13  1  0  0  0  0
  4  6  1  0  0  0  0
  4 14  1  0  0  0  0
  4 15  1  0  0  0  0
  5  7  1  0  0  0  0
  5 16  1  0  0  0  0
  5 17  1  0  0  0  0
  6  8  1  0  0  0  0
  6 18  1  0  0  0  0
  6 19  1  0  0  0  0
  7 20  1  0  0  0  0
  7 21  1  0  0  0  0
  7 22  1  0  0  0  0
  8  9  2  3  0  0  0
  8 23  1  0  0  0  0
  9 10  1  0  0  0  0
  9 24  1  0  0  0  0
 11 25  1  0  0  0  0
 11 26  1  0  0  0  0
 11 27  1  0  0  0  0
M  END
> <PUBCHEM_COMPOUND_CID>
61313

> <PUBCHEM_CONFORMER_RMSD>
0.6

> <PUBCHEM_CONFORMER_DIVERSEORDER>
2
51
35
72
8
86
22
87
24
77
5
31
67
76
32
45
55
85
20
39
81
4
66
84
27
79
59
82
13
70
60
10
34
80
16
28
3
40
88
18
36
37
33
78
17
50
53
7
75
12
30
63
1
61
56
9
21
49
19
23
58
14
42
52
43
65
41
15
38
64
11
47
48
54
62
46
73
29
44
83
69
74
6
25
26
57
71
68

> <PUBCHEM_MMFF94_PARTIAL_CHARGES>
9
1 -0.43
10 0.71
11 0.28
2 -0.57
23 0.15
24 0.15
6 0.14
8 -0.29
9 -0.14

> <PUBCHEM_EFFECTIVE_ROTOR_COUNT>
6

> <PUBCHEM_PHARMACOPHORE_FEATURES>
3
1 2 acceptor
1 7 hydrophobe
5 3 4 5 6 8 hydrophobe

> <PUBCHEM_HEAVY_ATOM_COUNT>
11

> <PUBCHEM_ATOM_DEF_STEREO_COUNT>
0

> <PUBCHEM_ATOM_UDEF_STEREO_COUNT>
0

> <PUBCHEM_BOND_DEF_STEREO_COUNT>
0

> <PUBCHEM_BOND_UDEF_STEREO_COUNT>
1

> <PUBCHEM_ISOTOPIC_ATOM_COUNT>
0

> <PUBCHEM_COMPONENT_COUNT>
1

> <PUBCHEM_CACTVS_TAUTO_COUNT>
1

> <PUBCHEM_CONFORMER_ID>
0000EF8100000002

> <PUBCHEM_MMFF94_ENERGY>
7.2931

> <PUBCHEM_FEATURE_SELFOVERLAP>
15.223

> <PUBCHEM_SHAPE_FINGERPRINT>
100836 57 15213022630875243383
10354089 29 11025800890165064286
11062470 55 12468356847303746457
114248 4 18260266352262762255
117890 112 11097845281969539503
12251169 10 10231750098065252523
12714333 28 17095242522841917894
13690532 89 17346597473984838519
14123238 8 9655575219064631899
14252887 29 12031796872229169124
15242439 84 17967254204120548811
15477762 27 18273219660453666382
17834072 33 18130504232031107909
17834076 25 15285358418540103431
18342897 14 12107789605371385471
187816 3 18333452036572269353
200 152 18131633365742304441
20605781 2 15502096353767288967
20645477 70 18335701590134499898
20719005 15 17989487420298297363
20767249 13 15554445197893529637
20767249 213 13479137899624380183
20828058 44 13110956535474747981
21119208 17 18407759235479368127
212847 35 15502367924681465700
22485316 2 11887954345978490741
23402539 116 17988644056204267985
23402655 69 17967811626451079543
26918003 58 12103842367555162423
366044 4 16153708726034937355
42 15 12823295710762380625
42788 4 18334575741903810709
449060 50 9943802283670023066

> <PUBCHEM_SHAPE_MULTIPOLES>
214.64
12.35
0.85
0.81
5.9
0.12
-0.05
-1.91
3.48
-0.63
0.04
0.2
-0.01
0.07

> <PUBCHEM_SHAPE_SELFOVERLAP>
392.997

> <PUBCHEM_SHAPE_VOLUME>
137

> <PUBCHEM_COORDINATE_TYPE>
2
5
10

$$$$
