61325
  -OEChem-11232109453D

 20 20  0     1  0  0  0  0  0999 V2000
   -1.2910    1.1350   -0.3600 O   0  0  0  0  0  0  0  0  0  0  0  0
    1.9911   -0.1715    0.5370 O   0  0  0  0  0  0  0  0  0  0  0  0
   -0.1060   -2.1302    0.0510 O   0  0  0  0  0  0  0  0  0  0  0  0
   -1.5856   -0.2733   -0.4637 C   0  0  1  0  0  0  0  0  0  0  0  0
   -0.2968   -0.9305   -0.0589 C   0  0  0  0  0  0  0  0  0  0  0  0
    0.0552    1.2311   -0.0107 C   0  0  0  0  0  0  0  0  0  0  0  0
    0.7110    0.0897    0.1856 C   0  0  0  0  0  0  0  0  0  0  0  0
   -2.7295   -0.6267    0.4639 C   0  0  0  0  0  0  0  0  0  0  0  0
    0.5862    2.6164    0.1101 C   0  0  0  0  0  0  0  0  0  0  0  0
    2.6654   -0.9398   -0.4543 C   0  0  0  0  0  0  0  0  0  0  0  0
   -1.8120   -0.5059   -1.5092 H   0  0  0  0  0  0  0  0  0  0  0  0
   -2.4864   -0.3800    1.5036 H   0  0  0  0  0  0  0  0  0  0  0  0
   -3.6255   -0.0544    0.2025 H   0  0  0  0  0  0  0  0  0  0  0  0
   -2.9648   -1.6944    0.4140 H   0  0  0  0  0  0  0  0  0  0  0  0
    0.4891    3.1443   -0.8437 H   0  0  0  0  0  0  0  0  0  0  0  0
    1.6435    2.6219    0.3933 H   0  0  0  0  0  0  0  0  0  0  0  0
    0.0294    3.1715    0.8715 H   0  0  0  0  0  0  0  0  0  0  0  0
    2.3638   -1.9905   -0.4126 H   0  0  0  0  0  0  0  0  0  0  0  0
    3.7376   -0.8946   -0.2397 H   0  0  0  0  0  0  0  0  0  0  0  0
    2.5060   -0.5336   -1.4598 H   0  0  0  0  0  0  0  0  0  0  0  0
  1  4  1  0  0  0  0
  1  6  1  0  0  0  0
  2  7  1  0  0  0  0
  2 10  1  0  0  0  0
  3  5  2  0  0  0  0
  4  5  1  0  0  0  0
  4  8  1  0  0  0  0
  4 11  1  0  0  0  0
  5  7  1  0  0  0  0
  6  7  2  0  0  0  0
  6  9  1  0  0  0  0
  8 12  1  0  0  0  0
  8 13  1  0  0  0  0
  8 14  1  0  0  0  0
  9 15  1  0  0  0  0
  9 16  1  0  0  0  0
  9 17  1  0  0  0  0
 10 18  1  0  0  0  0
 10 19  1  0  0  0  0
 10 20  1  0  0  0  0
M  END
> <PUBCHEM_COMPOUND_CID>
61325

> <PUBCHEM_CONFORMER_RMSD>
0.4

> <PUBCHEM_CONFORMER_DIVERSEORDER>
1
4
2
3

> <PUBCHEM_MMFF94_PARTIAL_CHARGES>
9
1 -0.36
10 0.28
2 -0.36
3 -0.57
4 0.34
5 0.49
6 -0.06
7 0.09
9 0.14

> <PUBCHEM_EFFECTIVE_ROTOR_COUNT>
1.4

> <PUBCHEM_PHARMACOPHORE_FEATURES>
4
1 1 acceptor
1 2 acceptor
1 3 acceptor
5 1 4 5 6 7 rings

> <PUBCHEM_HEAVY_ATOM_COUNT>
10

> <PUBCHEM_ATOM_DEF_STEREO_COUNT>
0

> <PUBCHEM_ATOM_UDEF_STEREO_COUNT>
1

> <PUBCHEM_BOND_DEF_STEREO_COUNT>
0

> <PUBCHEM_BOND_UDEF_STEREO_COUNT>
0

> <PUBCHEM_ISOTOPIC_ATOM_COUNT>
0

> <PUBCHEM_COMPONENT_COUNT>
1

> <PUBCHEM_CACTVS_TAUTO_COUNT>
5

> <PUBCHEM_CONFORMER_ID>
0000EF8D00000001

> <PUBCHEM_MMFF94_ENERGY>
18.9594

> <PUBCHEM_FEATURE_SELFOVERLAP>
20.299

> <PUBCHEM_SHAPE_FINGERPRINT>
12423570 1 12239599175093915416
161256 15 18191023602265197061
16945 1 18194960970446916980
193761 8 17834394901140743998
21040471 1 17833267897717391685
23552423 10 17902791100030547958
241688 4 18340769221819671056
2748010 2 18338785750093376756
29004967 10 18410854360637737171
5084963 1 18130783507847484355

> <PUBCHEM_SHAPE_MULTIPOLES>
188.19
3
2.2
0.69
0.19
1.08
0.01
-1.14
-0.09
-0.63
-0.01
0.02
-0.01
0.2

> <PUBCHEM_SHAPE_SELFOVERLAP>
382.585

> <PUBCHEM_SHAPE_VOLUME>
111.2

> <PUBCHEM_COORDINATE_TYPE>
2
5
10

$$$$
