61331
  -OEChem-11232108523D

 32 33  0     0  0  0  0  0  0999 V2000
    0.9396    0.0049    1.1521 O   0  0  0  0  0  0  0  0  0  0  0  0
    2.2731   -1.9181   -0.3481 O   0  0  0  0  0  0  0  0  0  0  0  0
   -0.2664    0.6024   -0.7604 O   0  0  0  0  0  0  0  0  0  0  0  0
   -1.4145   -0.1850    1.2388 C   0  0  0  0  0  0  0  0  0  0  0  0
   -2.7118   -0.0742    0.5113 C   0  0  0  0  0  0  0  0  0  0  0  0
    2.1072    0.3300    0.4579 C   0  0  0  0  0  0  0  0  0  0  0  0
   -0.2140    0.1963    0.3928 C   0  0  0  0  0  0  0  0  0  0  0  0
   -3.4250    1.1243    0.5357 C   0  0  0  0  0  0  0  0  0  0  0  0
   -3.2117   -1.1690   -0.1942 C   0  0  0  0  0  0  0  0  0  0  0  0
    2.7477   -0.6432   -0.2772 C   0  0  0  0  0  0  0  0  0  0  0  0
    2.5745    1.6240    0.5394 C   0  0  0  0  0  0  0  0  0  0  0  0
   -4.6382    1.2281   -0.1449 C   0  0  0  0  0  0  0  0  0  0  0  0
   -4.4248   -1.0651   -0.8748 C   0  0  0  0  0  0  0  0  0  0  0  0
    3.9136   -0.3063   -0.9652 C   0  0  0  0  0  0  0  0  0  0  0  0
   -5.1380    0.1335   -0.8501 C   0  0  0  0  0  0  0  0  0  0  0  0
    3.7403    1.9607   -0.1487 C   0  0  0  0  0  0  0  0  0  0  0  0
    4.4098    0.9957   -0.9008 C   0  0  0  0  0  0  0  0  0  0  0  0
    2.7385   -2.8389    0.6366 C   0  0  0  0  0  0  0  0  0  0  0  0
   -1.4282    0.4611    2.1250 H   0  0  0  0  0  0  0  0  0  0  0  0
   -1.2746   -1.2150    1.5893 H   0  0  0  0  0  0  0  0  0  0  0  0
   -3.0453    1.9853    1.0796 H   0  0  0  0  0  0  0  0  0  0  0  0
   -2.6646   -2.1077   -0.2230 H   0  0  0  0  0  0  0  0  0  0  0  0
    2.0545    2.3753    1.1254 H   0  0  0  0  0  0  0  0  0  0  0  0
   -5.1932    2.1614   -0.1264 H   0  0  0  0  0  0  0  0  0  0  0  0
   -4.8139   -1.9171   -1.4245 H   0  0  0  0  0  0  0  0  0  0  0  0
    4.4399   -1.0528   -1.5539 H   0  0  0  0  0  0  0  0  0  0  0  0
   -6.0824    0.2145   -1.3804 H   0  0  0  0  0  0  0  0  0  0  0  0
    4.1268    2.9745   -0.0984 H   0  0  0  0  0  0  0  0  0  0  0  0
    5.3174    1.2581   -1.4365 H   0  0  0  0  0  0  0  0  0  0  0  0
    2.2659   -3.8072    0.4507 H   0  0  0  0  0  0  0  0  0  0  0  0
    2.4619   -2.5016    1.6405 H   0  0  0  0  0  0  0  0  0  0  0  0
    3.8242   -2.9596    0.5660 H   0  0  0  0  0  0  0  0  0  0  0  0
  1  6  1  0  0  0  0
  1  7  1  0  0  0  0
  2 10  1  0  0  0  0
  2 18  1  0  0  0  0
  3  7  2  0  0  0  0
  4  5  1  0  0  0  0
  4  7  1  0  0  0  0
  4 19  1  0  0  0  0
  4 20  1  0  0  0  0
  5  8  2  0  0  0  0
  5  9  1  0  0  0  0
  6 10  1  0  0  0  0
  6 11  2  0  0  0  0
  8 12  1  0  0  0  0
  8 21  1  0  0  0  0
  9 13  2  0  0  0  0
  9 22  1  0  0  0  0
 10 14  2  0  0  0  0
 11 16  1  0  0  0  0
 11 23  1  0  0  0  0
 12 15  2  0  0  0  0
 12 24  1  0  0  0  0
 13 15  1  0  0  0  0
 13 25  1  0  0  0  0
 14 17  1  0  0  0  0
 14 26  1  0  0  0  0
 15 27  1  0  0  0  0
 16 17  2  0  0  0  0
 16 28  1  0  0  0  0
 17 29  1  0  0  0  0
 18 30  1  0  0  0  0
 18 31  1  0  0  0  0
 18 32  1  0  0  0  0
M  END
> <PUBCHEM_COMPOUND_CID>
61331

> <PUBCHEM_CONFORMER_RMSD>
0.6

> <PUBCHEM_CONFORMER_DIVERSEORDER>
1
226
108
201
154
203
158
221
99
195
183
231
172
37
184
135
156
240
53
115
41
125
188
132
122
87
178
50
227
76
144
47
46
146
179
189
200
19
126
93
220
209
182
238
137
142
82
89
152
216
36
241
159
186
107
121
98
72
86
208
177
39
78
29
233
96
170
192
97
185
90
94
171
224
229
85
205
197
21
127
165
61
198
225
140
206
54
42
11
139
64
207
84
14
119
55
103
164
223
194
40
160
111
232
2
150
60
128
24
213
143
136
148
243
167
134
118
35
3
105
130
214
234
88
199
176
12
100
124
169
66
16
26
56
196
106
32
112
31
77
204
239
149
91
219
58
109
83
79
191
131
73
123
104
10
153
63
27
101
120
246
18
157
173
57
181
212
117
110
133
138
70
68
4
230
145
28
52
80
175
190
218
9
71
113
151
166
174
5
17
38
43
25
193
95
74
34
44
129
237
48
67
102
247
162
168
242
215
236
163
59
114
65
33
92
23
244
30
161
81
45
245
13
20
141
69
8
62
217
49
202
210
116
235
75
222
147
7
180
228
187
6
51
15
22
155
211

> <PUBCHEM_MMFF94_PARTIAL_CHARGES>
27
1 -0.23
10 0.08
11 -0.15
12 -0.15
13 -0.15
14 -0.15
15 -0.15
16 -0.15
17 -0.15
18 0.28
2 -0.36
21 0.15
22 0.15
23 0.15
24 0.15
25 0.15
26 0.15
27 0.15
28 0.15
29 0.15
3 -0.57
4 0.2
5 -0.14
6 0.08
7 0.66
8 -0.15
9 -0.15

> <PUBCHEM_EFFECTIVE_ROTOR_COUNT>
5

> <PUBCHEM_PHARMACOPHORE_FEATURES>
4
1 2 acceptor
1 3 acceptor
6 5 8 9 12 13 15 rings
6 6 10 11 14 16 17 rings

> <PUBCHEM_HEAVY_ATOM_COUNT>
18

> <PUBCHEM_ATOM_DEF_STEREO_COUNT>
0

> <PUBCHEM_ATOM_UDEF_STEREO_COUNT>
0

> <PUBCHEM_BOND_DEF_STEREO_COUNT>
0

> <PUBCHEM_BOND_UDEF_STEREO_COUNT>
0

> <PUBCHEM_ISOTOPIC_ATOM_COUNT>
0

> <PUBCHEM_COMPONENT_COUNT>
1

> <PUBCHEM_CACTVS_TAUTO_COUNT>
1

> <PUBCHEM_CONFORMER_ID>
0000EF9300000001

> <PUBCHEM_MMFF94_ENERGY>
60.5299

> <PUBCHEM_FEATURE_SELFOVERLAP>
20.297

> <PUBCHEM_SHAPE_FINGERPRINT>
10498660 4 18040426690391583725
11471102 20 18410860962609229832
11543360 7 18341893021767113105
12107183 9 17693381044888655369
12670546 177 18343584044801727133
12707595 3 16057159523220187435
12730499 353 18261684739099740474
13167823 11 18202001027862626911
13533116 47 18411696557165865403
13760787 19 18202284710389159039
14528608 73 18339363071112852820
15375358 24 17894915156459407920
16752209 62 16415202226383875659
17834072 33 18341611538158191925
18186145 218 17095526158440548603
18222031 100 14907893895182059241
18335252 98 18260553368454563147
19862831 5 17846503638071648905
200 152 17917714608177431217
20645477 56 18040156236527444001
20645477 70 18343305838147663030
21054139 6 18270390724077603246
21637258 2 15625956279287637012
21709351 56 18411982494323407756
22289505 5 18334289829946828484
22393880 68 18343304785875348918
22646028 1 13614526259620976237
23402539 116 17821727269274854868
23402655 69 18413394228266411192
23557571 272 17023481835841061395
23559900 14 18272360936896956763
23596394 208 18410286995473759948
2838139 119 16083365382868778142
2871803 45 18341898497855638228
3004659 81 18200873976546060471
3060560 45 18410859893294034348
3545911 37 18335143115726424361
4028521 119 18113893849878261085
42 15 9583526416582308673
474 4 17968662734255748972
4990 188 17918002684803706132
543358 83 18340774719435799570
59682541 52 18266718231134829047
633830 44 17822571604047525651
67856867 119 18340195345754201056
7495541 125 11959729382792208980
77779 3 18342459244464534325
8272917 22 18341337686453259878
960060 61 18272650138625223949
9709674 26 18412549825011861563

> <PUBCHEM_SHAPE_MULTIPOLES>
352.82
10.99
2.02
1.07
6.84
0.99
0.03
-1.67
-3.43
-2.02
0.19
0.03
0.04
-0.53

> <PUBCHEM_SHAPE_SELFOVERLAP>
751.937

> <PUBCHEM_SHAPE_VOLUME>
194.5

> <PUBCHEM_COORDINATE_TYPE>
2
5
10

$$$$
