61334
  -OEChem-11232109243D

 22 22  0     1  0  0  0  0  0999 V2000
    1.9879   -1.0378    0.0682 O   0  0  0  0  0  0  0  0  0  0  0  0
   -1.4194   -0.0568   -0.7752 O   0  0  0  0  0  0  0  0  0  0  0  0
    0.5687    2.0671   -0.6934 O   0  0  0  0  0  0  0  0  0  0  0  0
   -1.8601    0.3224    1.4797 O   0  0  0  0  0  0  0  0  0  0  0  0
    2.2216    0.3659   -0.1684 C   0  0  1  0  0  0  0  0  0  0  0  0
    0.8528    0.9001   -0.4806 C   0  0  0  0  0  0  0  0  0  0  0  0
    0.6325   -1.2576   -0.1733 C   0  0  0  0  0  0  0  0  0  0  0  0
   -0.1032   -0.1962   -0.4951 C   0  0  0  0  0  0  0  0  0  0  0  0
    2.8203    1.0010    1.0694 C   0  0  0  0  0  0  0  0  0  0  0  0
    0.1781   -2.6673   -0.0258 C   0  0  0  0  0  0  0  0  0  0  0  0
   -2.2257    0.2075    0.3169 C   0  0  0  0  0  0  0  0  0  0  0  0
   -3.6535    0.3517   -0.1224 C   0  0  0  0  0  0  0  0  0  0  0  0
    2.8719    0.4681   -1.0431 H   0  0  0  0  0  0  0  0  0  0  0  0
    2.1579    0.8822    1.9345 H   0  0  0  0  0  0  0  0  0  0  0  0
    3.7691    0.5190    1.3268 H   0  0  0  0  0  0  0  0  0  0  0  0
    2.9959    2.0708    0.9203 H   0  0  0  0  0  0  0  0  0  0  0  0
    0.7178   -3.3149   -0.7239 H   0  0  0  0  0  0  0  0  0  0  0  0
   -0.8927   -2.7721   -0.2273 H   0  0  0  0  0  0  0  0  0  0  0  0
    0.3668   -3.0222    0.9922 H   0  0  0  0  0  0  0  0  0  0  0  0
   -3.9867   -0.5709   -0.6043 H   0  0  0  0  0  0  0  0  0  0  0  0
   -3.7454    1.1990   -0.8064 H   0  0  0  0  0  0  0  0  0  0  0  0
   -4.2856    0.5359    0.7510 H   0  0  0  0  0  0  0  0  0  0  0  0
  1  5  1  0  0  0  0
  1  7  1  0  0  0  0
  2  8  1  0  0  0  0
  2 11  1  0  0  0  0
  3  6  2  0  0  0  0
  4 11  2  0  0  0  0
  5  6  1  0  0  0  0
  5  9  1  0  0  0  0
  5 13  1  0  0  0  0
  6  8  1  0  0  0  0
  7  8  2  0  0  0  0
  7 10  1  0  0  0  0
  9 14  1  0  0  0  0
  9 15  1  0  0  0  0
  9 16  1  0  0  0  0
 10 17  1  0  0  0  0
 10 18  1  0  0  0  0
 10 19  1  0  0  0  0
 11 12  1  0  0  0  0
 12 20  1  0  0  0  0
 12 21  1  0  0  0  0
 12 22  1  0  0  0  0
M  END
> <PUBCHEM_COMPOUND_CID>
61334

> <PUBCHEM_CONFORMER_RMSD>
0.6

> <PUBCHEM_CONFORMER_DIVERSEORDER>
2
11
7
6
12
4
9
10
5
13
8
1
3

> <PUBCHEM_MMFF94_PARTIAL_CHARGES>
11
1 -0.36
10 0.14
11 0.66
12 0.06
2 -0.23
3 -0.57
4 -0.57
5 0.34
6 0.49
7 -0.06
8 0.09

> <PUBCHEM_EFFECTIVE_ROTOR_COUNT>
2.4

> <PUBCHEM_PHARMACOPHORE_FEATURES>
4
1 1 acceptor
1 3 acceptor
1 4 acceptor
5 1 5 6 7 8 rings

> <PUBCHEM_HEAVY_ATOM_COUNT>
12

> <PUBCHEM_ATOM_DEF_STEREO_COUNT>
0

> <PUBCHEM_ATOM_UDEF_STEREO_COUNT>
1

> <PUBCHEM_BOND_DEF_STEREO_COUNT>
0

> <PUBCHEM_BOND_UDEF_STEREO_COUNT>
0

> <PUBCHEM_ISOTOPIC_ATOM_COUNT>
0

> <PUBCHEM_COMPONENT_COUNT>
1

> <PUBCHEM_CACTVS_TAUTO_COUNT>
5

> <PUBCHEM_CONFORMER_ID>
0000EF9600000002

> <PUBCHEM_MMFF94_ENERGY>
20.6845

> <PUBCHEM_FEATURE_SELFOVERLAP>
20.297

> <PUBCHEM_SHAPE_FINGERPRINT>
10219947 1 18335421257312582692
12423570 1 11883237441248195806
14993402 34 18336833077740547164
15207287 21 17603857919133943059
15775835 57 17917713513071638129
161256 15 18196374710772599166
16945 1 18261393377129283228
20201158 50 18041282063140209163
20653085 51 16271104720603974928
21040471 1 18338802337483609022
2748010 2 18118950417785992388
29004967 10 18187371986551903428
5084963 1 18272940435443706837
63268167 104 18343582914929818496

> <PUBCHEM_SHAPE_MULTIPOLES>
223.48
4.21
1.94
0.96
2.5
1.2
0.24
-1.48
0.91
-0.71
-0.13
0.04
-0.24
0.07

> <PUBCHEM_SHAPE_SELFOVERLAP>
457.578

> <PUBCHEM_SHAPE_VOLUME>
129.2

> <PUBCHEM_COORDINATE_TYPE>
2
5
10

$$$$
