61370
  -OEChem-11232109083D

 19 18  0     0  0  0  0  0  0999 V2000
    3.5282   -0.6169    0.0587 O   0  0  0  0  0  0  0  0  0  0  0  0
    1.1789   -0.2354   -0.2085 C   0  0  0  0  0  0  0  0  0  0  0  0
    0.0374    0.7679   -0.0563 C   0  0  0  0  0  0  0  0  0  0  0  0
    2.5137    0.3667    0.2082 C   0  0  0  0  0  0  0  0  0  0  0  0
   -1.2804    0.1534   -0.4290 C   0  0  0  0  0  0  0  0  0  0  0  0
   -2.3326    0.0853    0.3994 C   0  0  0  0  0  0  0  0  0  0  0  0
   -3.6452   -0.5210    0.0275 C   0  0  0  0  0  0  0  0  0  0  0  0
    1.2470   -0.5870   -1.2462 H   0  0  0  0  0  0  0  0  0  0  0  0
    0.9806   -1.1307    0.3955 H   0  0  0  0  0  0  0  0  0  0  0  0
    0.0122    1.1453    0.9732 H   0  0  0  0  0  0  0  0  0  0  0  0
    0.2158    1.6311   -0.7086 H   0  0  0  0  0  0  0  0  0  0  0  0
    2.4989    0.6968    1.2518 H   0  0  0  0  0  0  0  0  0  0  0  0
    2.7724    1.2224   -0.4228 H   0  0  0  0  0  0  0  0  0  0  0  0
   -1.3698   -0.2403   -1.4386 H   0  0  0  0  0  0  0  0  0  0  0  0
   -2.2501    0.4847    1.4067 H   0  0  0  0  0  0  0  0  0  0  0  0
   -3.6506   -0.9027   -0.9984 H   0  0  0  0  0  0  0  0  0  0  0  0
   -4.4395    0.2262    0.1176 H   0  0  0  0  0  0  0  0  0  0  0  0
   -3.8761   -1.3515    0.7016 H   0  0  0  0  0  0  0  0  0  0  0  0
    3.3072   -1.3590    0.6469 H   0  0  0  0  0  0  0  0  0  0  0  0
  1  4  1  0  0  0  0
  1 19  1  0  0  0  0
  2  3  1  0  0  0  0
  2  4  1  0  0  0  0
  2  8  1  0  0  0  0
  2  9  1  0  0  0  0
  3  5  1  0  0  0  0
  3 10  1  0  0  0  0
  3 11  1  0  0  0  0
  4 12  1  0  0  0  0
  4 13  1  0  0  0  0
  5  6  2  3  0  0  0
  5 14  1  0  0  0  0
  6  7  1  0  0  0  0
  6 15  1  0  0  0  0
  7 16  1  0  0  0  0
  7 17  1  0  0  0  0
  7 18  1  0  0  0  0
M  END
> <PUBCHEM_COMPOUND_CID>
61370

> <PUBCHEM_CONFORMER_RMSD>
0.4

> <PUBCHEM_CONFORMER_DIVERSEORDER>
1
10
11
2
8
4
9
12
6
3
5
7

> <PUBCHEM_MMFF94_PARTIAL_CHARGES>
9
1 -0.68
14 0.15
15 0.15
19 0.4
3 0.14
4 0.28
5 -0.29
6 -0.29
7 0.14

> <PUBCHEM_EFFECTIVE_ROTOR_COUNT>
3

> <PUBCHEM_PHARMACOPHORE_FEATURES>
3
1 1 acceptor
1 1 donor
1 7 hydrophobe

> <PUBCHEM_HEAVY_ATOM_COUNT>
7

> <PUBCHEM_ATOM_DEF_STEREO_COUNT>
0

> <PUBCHEM_ATOM_UDEF_STEREO_COUNT>
0

> <PUBCHEM_BOND_DEF_STEREO_COUNT>
0

> <PUBCHEM_BOND_UDEF_STEREO_COUNT>
1

> <PUBCHEM_ISOTOPIC_ATOM_COUNT>
0

> <PUBCHEM_COMPONENT_COUNT>
1

> <PUBCHEM_CACTVS_TAUTO_COUNT>
1

> <PUBCHEM_CONFORMER_ID>
0000EFBA00000001

> <PUBCHEM_MMFF94_ENERGY>
0.1362

> <PUBCHEM_FEATURE_SELFOVERLAP>
15.223

> <PUBCHEM_SHAPE_FINGERPRINT>
11062470 55 13118000002403497942
14325111 11 18411418418671543684
14390081 3 10735881659810550939
20211469 26 18413386536248782055
21293036 1 12107790713425318995
29004967 10 18408889533374784049
5460574 1 8935002568282232613

> <PUBCHEM_SHAPE_MULTIPOLES>
138.19
6.09
0.8
0.67
0.1
0.03
-0.01
-1.55
0.54
0.09
0
-0.1
0.02
0.02

> <PUBCHEM_SHAPE_SELFOVERLAP>
241.552

> <PUBCHEM_SHAPE_VOLUME>
91.4

> <PUBCHEM_COORDINATE_TYPE>
2
5
10

$$$$
