61379
  -OEChem-11232108483D

 39 39  0     0  0  0  0  0  0999 V2000
   -1.0782    0.1312   -0.0108 O   0  0  0  0  0  0  0  0  0  0  0  0
   -0.0630    2.2013    0.0712 O   0  0  0  0  0  0  0  0  0  0  0  0
   -4.8329    0.2665   -0.0157 C   0  0  0  0  0  0  0  0  0  0  0  0
   -5.9450   -0.7862   -0.0242 C   0  0  0  0  0  0  0  0  0  0  0  0
   -3.4280   -0.3337   -0.0261 C   0  0  0  0  0  0  0  0  0  0  0  0
   -7.3511   -0.1851   -0.0387 C   0  0  0  0  0  0  0  0  0  0  0  0
   -2.3576    0.7489    0.0161 C   0  0  0  0  0  0  0  0  0  0  0  0
   -8.4174   -1.2681    0.0266 C   0  0  0  0  0  0  0  0  0  0  0  0
    2.5152    1.0594    0.0503 C   0  0  0  0  0  0  0  0  0  0  0  0
    1.2733    0.1709   -0.0142 C   0  0  0  0  0  0  0  0  0  0  0  0
    3.7840    0.2476    0.0191 C   0  0  0  0  0  0  0  0  0  0  0  0
   -0.0029    0.9805    0.0218 C   0  0  0  0  0  0  0  0  0  0  0  0
    4.3444   -0.1885    1.2110 C   0  0  0  0  0  0  0  0  0  0  0  0
    4.3726   -0.0521   -1.2011 C   0  0  0  0  0  0  0  0  0  0  0  0
    5.5190   -0.9403    1.1823 C   0  0  0  0  0  0  0  0  0  0  0  0
    5.5472   -0.8041   -1.2297 C   0  0  0  0  0  0  0  0  0  0  0  0
    6.1203   -1.2482   -0.0380 C   0  0  0  0  0  0  0  0  0  0  0  0
   -4.9497    0.9003    0.8721 H   0  0  0  0  0  0  0  0  0  0  0  0
   -4.9525    0.9202   -0.8887 H   0  0  0  0  0  0  0  0  0  0  0  0
   -5.8334   -1.4264    0.8598 H   0  0  0  0  0  0  0  0  0  0  0  0
   -5.8207   -1.4339   -0.9009 H   0  0  0  0  0  0  0  0  0  0  0  0
   -3.2976   -1.0079    0.8295 H   0  0  0  0  0  0  0  0  0  0  0  0
   -3.2879   -0.9530   -0.9207 H   0  0  0  0  0  0  0  0  0  0  0  0
   -7.4740    0.4918    0.8146 H   0  0  0  0  0  0  0  0  0  0  0  0
   -7.4909    0.4097   -0.9486 H   0  0  0  0  0  0  0  0  0  0  0  0
   -2.4582    1.3404    0.9336 H   0  0  0  0  0  0  0  0  0  0  0  0
   -2.4603    1.4116   -0.8513 H   0  0  0  0  0  0  0  0  0  0  0  0
    2.4936    1.6758    0.9589 H   0  0  0  0  0  0  0  0  0  0  0  0
    2.5138    1.7740   -0.7835 H   0  0  0  0  0  0  0  0  0  0  0  0
    1.2779   -0.4157   -0.9403 H   0  0  0  0  0  0  0  0  0  0  0  0
    1.2622   -0.5198    0.8372 H   0  0  0  0  0  0  0  0  0  0  0  0
   -9.4150   -0.8184    0.0126 H   0  0  0  0  0  0  0  0  0  0  0  0
   -8.3388   -1.9477   -0.8279 H   0  0  0  0  0  0  0  0  0  0  0  0
   -8.3233   -1.8571    0.9445 H   0  0  0  0  0  0  0  0  0  0  0  0
    3.8826    0.0442    2.1664 H   0  0  0  0  0  0  0  0  0  0  0  0
    3.9330    0.2875   -2.1346 H   0  0  0  0  0  0  0  0  0  0  0  0
    5.9650   -1.2866    2.1100 H   0  0  0  0  0  0  0  0  0  0  0  0
    6.0152   -1.0444   -2.1799 H   0  0  0  0  0  0  0  0  0  0  0  0
    7.0346   -1.8339   -0.0604 H   0  0  0  0  0  0  0  0  0  0  0  0
  1  7  1  0  0  0  0
  1 12  1  0  0  0  0
  2 12  2  0  0  0  0
  3  4  1  0  0  0  0
  3  5  1  0  0  0  0
  3 18  1  0  0  0  0
  3 19  1  0  0  0  0
  4  6  1  0  0  0  0
  4 20  1  0  0  0  0
  4 21  1  0  0  0  0
  5  7  1  0  0  0  0
  5 22  1  0  0  0  0
  5 23  1  0  0  0  0
  6  8  1  0  0  0  0
  6 24  1  0  0  0  0
  6 25  1  0  0  0  0
  7 26  1  0  0  0  0
  7 27  1  0  0  0  0
  8 32  1  0  0  0  0
  8 33  1  0  0  0  0
  8 34  1  0  0  0  0
  9 10  1  0  0  0  0
  9 11  1  0  0  0  0
  9 28  1  0  0  0  0
  9 29  1  0  0  0  0
 10 12  1  0  0  0  0
 10 30  1  0  0  0  0
 10 31  1  0  0  0  0
 11 13  2  0  0  0  0
 11 14  1  0  0  0  0
 13 15  1  0  0  0  0
 13 35  1  0  0  0  0
 14 16  2  0  0  0  0
 14 36  1  0  0  0  0
 15 17  2  0  0  0  0
 15 37  1  0  0  0  0
 16 17  1  0  0  0  0
 16 38  1  0  0  0  0
 17 39  1  0  0  0  0
M  END
> <PUBCHEM_COMPOUND_CID>
61379

> <PUBCHEM_CONFORMER_RMSD>
1

> <PUBCHEM_CONFORMER_DIVERSEORDER>
1
605
97
209
182
6
15
84
179
37
24
348
502
82
467
341
654
77
542
60
21
31
485
205
4
38
92
437
2
160
381
447
110
400
313
458
483
8
178
512
152
599
36
30
85
112
80
338
79
579
107
39
476
101
644
11
392
158
315
214
396
171
640
91
67
90
168
88
33
7
52
166
16
86
562
78
547
230
524
582
22
54
128
653
378
504
17
632
713
200
193
650
40
286
133
548
317
287
55
238
232
576
186
211
409
19
246
623

> <PUBCHEM_MMFF94_PARTIAL_CHARGES>
17
1 -0.43
10 0.06
11 -0.14
12 0.66
13 -0.15
14 -0.15
15 -0.15
16 -0.15
17 -0.15
2 -0.57
35 0.15
36 0.15
37 0.15
38 0.15
39 0.15
7 0.28
9 0.14

> <PUBCHEM_EFFECTIVE_ROTOR_COUNT>
9

> <PUBCHEM_PHARMACOPHORE_FEATURES>
4
1 2 acceptor
1 8 hydrophobe
4 3 4 5 6 hydrophobe
6 11 13 14 15 16 17 rings

> <PUBCHEM_HEAVY_ATOM_COUNT>
17

> <PUBCHEM_ATOM_DEF_STEREO_COUNT>
0

> <PUBCHEM_ATOM_UDEF_STEREO_COUNT>
0

> <PUBCHEM_BOND_DEF_STEREO_COUNT>
0

> <PUBCHEM_BOND_UDEF_STEREO_COUNT>
0

> <PUBCHEM_ISOTOPIC_ATOM_COUNT>
0

> <PUBCHEM_COMPONENT_COUNT>
1

> <PUBCHEM_CACTVS_TAUTO_COUNT>
1

> <PUBCHEM_CONFORMER_ID>
0000EFC300000001

> <PUBCHEM_MMFF94_ENERGY>
20.4136

> <PUBCHEM_FEATURE_SELFOVERLAP>
20.297

> <PUBCHEM_SHAPE_FINGERPRINT>
10 15 13183018540581180231
10299344 5 17821449054399841955
10354089 29 13973962108789433738
106641 1 18202557389963801426
10688039 33 16056882407930727634
10753850 27 18409727361409248801
11524674 6 17846498158559218727
11638347 137 15626230108763579295
125118 31 11815627376124498459
12714333 28 10809342243760320517
13167372 99 12823306679687303579
13533116 47 17632294601021188448
13668630 136 18334858303164700247
13685833 64 18341895203636814689
13862211 1 18410011035625310819
1420 363 18202846552182976223
14251752 14 17894624834572858157
14251764 18 18131915978938427345
14251764 46 16877942741452140371
14729087 3 11167950143720553595
15048467 5 9367347037751958731
15183329 4 16588021295253367433
15348495 7 16701729562093126731
15690457 1 18412258441339818779
18006028 8 18342175570454265457
18222031 100 18410860962350948832
20157964 124 11167949056186524852
20397935 70 16343713110075195372
20621476 38 18411982442599332879
20645477 70 15502652647386448394
20735858 18 16630808811817968375
21130983 4 10087642607003450415
21150785 3 16950286217013560646
21267235 1 18412547599996781973
221357 26 15213016050879897046
22224240 67 12319735865378978557
22956985 138 17978793403031131886
23035841 295 18408886248558304403
246663 6 18341618109231567831
28498 318 18409164394914073391
29717793 49 17312823749739831334
300161 21 8430315727690898721
3004659 81 18113901567723131612
33532 11 18411699872585524159
351380 3 18334855009035352610
4340502 62 15123793976404581700
465052 167 18412548717068113310
5758199 1 8718833102832767397
59682541 35 17632290207148435730
59682541 52 13984653716808132344
59755656 215 18333732394963542963
6025842 7 13118270461164206744
6438161 24 17531237353778443058

> <PUBCHEM_SHAPE_MULTIPOLES>
338.11
22.56
1.32
0.96
35.69
0.31
0.01
-12.21
0.34
-0.09
-0.04
-1.75
-0.17
-0.06

> <PUBCHEM_SHAPE_SELFOVERLAP>
665.664

> <PUBCHEM_SHAPE_VOLUME>
202

> <PUBCHEM_COORDINATE_TYPE>
2
5
10

$$$$
