61386
  -OEChem-11232108513D

 53 52  0     0  0  0  0  0  0999 V2000
   -4.2999    0.3673   -0.1357 O   0  0  0  0  0  0  0  0  0  0  0  0
   -3.2334   -1.6666   -0.3506 O   0  0  0  0  0  0  0  0  0  0  0  0
    3.1142    0.4523   -0.0775 C   0  0  0  0  0  0  0  0  0  0  0  0
    4.3808   -0.4026   -0.1512 C   0  0  0  0  0  0  0  0  0  0  0  0
    1.8557   -0.4173   -0.1214 C   0  0  0  0  0  0  0  0  0  0  0  0
    5.6738    0.4079   -0.0187 C   0  0  0  0  0  0  0  0  0  0  0  0
    0.5871    0.4373   -0.0811 C   0  0  0  0  0  0  0  0  0  0  0  0
    6.9756   -0.4011    0.0028 C   0  0  0  0  0  0  0  0  0  0  0  0
   -0.6707   -0.4335   -0.1597 C   0  0  0  0  0  0  0  0  0  0  0  0
    8.2250    0.4616    0.1978 C   0  0  0  0  0  0  0  0  0  0  0  0
   -1.9558    0.3941   -0.1495 C   0  0  0  0  0  0  0  0  0  0  0  0
    9.5290   -0.3377    0.1293 C   0  0  0  0  0  0  0  0  0  0  0  0
   -8.0886    0.1650   -0.0537 C   0  0  0  0  0  0  0  0  0  0  0  0
   -6.6688    0.7544   -0.0488 C   0  0  0  0  0  0  0  0  0  0  0  0
   -5.5690   -0.2935   -0.1713 C   0  0  0  0  0  0  0  0  0  0  0  0
   -3.2090   -0.4489   -0.2360 C   0  0  0  0  0  0  0  0  0  0  0  0
   10.7770    0.5158    0.2937 C   0  0  0  0  0  0  0  0  0  0  0  0
   -9.1684    1.2462    0.0092 C   0  0  0  0  0  0  0  0  0  0  0  0
   -8.2546   -0.8004    1.1222 C   0  0  0  0  0  0  0  0  0  0  0  0
    3.1059    1.1636   -0.9120 H   0  0  0  0  0  0  0  0  0  0  0  0
    3.1199    1.0396    0.8486 H   0  0  0  0  0  0  0  0  0  0  0  0
    4.3977   -0.9518   -1.1005 H   0  0  0  0  0  0  0  0  0  0  0  0
    4.3549   -1.1540    0.6479 H   0  0  0  0  0  0  0  0  0  0  0  0
    1.8577   -1.1130    0.7265 H   0  0  0  0  0  0  0  0  0  0  0  0
    1.8612   -1.0222   -1.0364 H   0  0  0  0  0  0  0  0  0  0  0  0
    5.7209    1.1306   -0.8432 H   0  0  0  0  0  0  0  0  0  0  0  0
    5.6202    0.9982    0.9051 H   0  0  0  0  0  0  0  0  0  0  0  0
    0.5682    1.0278    0.8427 H   0  0  0  0  0  0  0  0  0  0  0  0
    0.5934    1.1452   -0.9186 H   0  0  0  0  0  0  0  0  0  0  0  0
    6.9240   -1.1453    0.8069 H   0  0  0  0  0  0  0  0  0  0  0  0
    7.0607   -0.9577   -0.9385 H   0  0  0  0  0  0  0  0  0  0  0  0
   -0.6386   -1.0416   -1.0727 H   0  0  0  0  0  0  0  0  0  0  0  0
   -0.6834   -1.1372    0.6822 H   0  0  0  0  0  0  0  0  0  0  0  0
    8.2455    1.2426   -0.5722 H   0  0  0  0  0  0  0  0  0  0  0  0
    8.1636    0.9733    1.1661 H   0  0  0  0  0  0  0  0  0  0  0  0
   -1.9549    1.0837   -1.0012 H   0  0  0  0  0  0  0  0  0  0  0  0
   -2.0024    0.9772    0.7774 H   0  0  0  0  0  0  0  0  0  0  0  0
    9.5219   -1.1093    0.9084 H   0  0  0  0  0  0  0  0  0  0  0  0
    9.5843   -0.8596   -0.8335 H   0  0  0  0  0  0  0  0  0  0  0  0
   -8.2330   -0.3979   -0.9846 H   0  0  0  0  0  0  0  0  0  0  0  0
   -6.5664    1.4703   -0.8749 H   0  0  0  0  0  0  0  0  0  0  0  0
   -6.5062    1.3425    0.8642 H   0  0  0  0  0  0  0  0  0  0  0  0
   -5.6707   -0.8382   -1.1169 H   0  0  0  0  0  0  0  0  0  0  0  0
   -5.6040   -1.0008    0.6628 H   0  0  0  0  0  0  0  0  0  0  0  0
   11.6748   -0.1075    0.2370 H   0  0  0  0  0  0  0  0  0  0  0  0
   10.8374    1.2740   -0.4933 H   0  0  0  0  0  0  0  0  0  0  0  0
   10.7756    1.0256    1.2623 H   0  0  0  0  0  0  0  0  0  0  0  0
   -9.0741    1.9345   -0.8371 H   0  0  0  0  0  0  0  0  0  0  0  0
  -10.1691    0.8031   -0.0290 H   0  0  0  0  0  0  0  0  0  0  0  0
   -9.0898    1.8314    0.9317 H   0  0  0  0  0  0  0  0  0  0  0  0
   -9.2940   -1.1394    1.1985 H   0  0  0  0  0  0  0  0  0  0  0  0
   -7.6423   -1.6986    0.9997 H   0  0  0  0  0  0  0  0  0  0  0  0
   -7.9882   -0.3251    2.0723 H   0  0  0  0  0  0  0  0  0  0  0  0
  1 15  1  0  0  0  0
  1 16  1  0  0  0  0
  2 16  2  0  0  0  0
  3  4  1  0  0  0  0
  3  5  1  0  0  0  0
  3 20  1  0  0  0  0
  3 21  1  0  0  0  0
  4  6  1  0  0  0  0
  4 22  1  0  0  0  0
  4 23  1  0  0  0  0
  5  7  1  0  0  0  0
  5 24  1  0  0  0  0
  5 25  1  0  0  0  0
  6  8  1  0  0  0  0
  6 26  1  0  0  0  0
  6 27  1  0  0  0  0
  7  9  1  0  0  0  0
  7 28  1  0  0  0  0
  7 29  1  0  0  0  0
  8 10  1  0  0  0  0
  8 30  1  0  0  0  0
  8 31  1  0  0  0  0
  9 11  1  0  0  0  0
  9 32  1  0  0  0  0
  9 33  1  0  0  0  0
 10 12  1  0  0  0  0
 10 34  1  0  0  0  0
 10 35  1  0  0  0  0
 11 16  1  0  0  0  0
 11 36  1  0  0  0  0
 11 37  1  0  0  0  0
 12 17  1  0  0  0  0
 12 38  1  0  0  0  0
 12 39  1  0  0  0  0
 13 14  1  0  0  0  0
 13 18  1  0  0  0  0
 13 19  1  0  0  0  0
 13 40  1  0  0  0  0
 14 15  1  0  0  0  0
 14 41  1  0  0  0  0
 14 42  1  0  0  0  0
 15 43  1  0  0  0  0
 15 44  1  0  0  0  0
 17 45  1  0  0  0  0
 17 46  1  0  0  0  0
 17 47  1  0  0  0  0
 18 48  1  0  0  0  0
 18 49  1  0  0  0  0
 18 50  1  0  0  0  0
 19 51  1  0  0  0  0
 19 52  1  0  0  0  0
 19 53  1  0  0  0  0
M  END
> <PUBCHEM_COMPOUND_CID>
61386

> <PUBCHEM_CONFORMER_RMSD>
1.4

> <PUBCHEM_CONFORMER_DIVERSEORDER>
1
22
16
13
51
19
55
17
30
48
53
21
15
37
29
26
47
11
61
58
39
7
50
9
33
67
5
20
12
46
52
35
23
10
32
62
60
8
4
63
42
66
2
57
38
59
31
18
28
45
54
14
36
68
34
41
24
6
40
65
44
27
3
49
25
64
43
56

> <PUBCHEM_MMFF94_PARTIAL_CHARGES>
5
1 -0.43
11 0.06
15 0.28
16 0.66
2 -0.57

> <PUBCHEM_EFFECTIVE_ROTOR_COUNT>
14

> <PUBCHEM_PHARMACOPHORE_FEATURES>
3
1 17 hydrophobe
1 2 acceptor
3 13 18 19 hydrophobe

> <PUBCHEM_HEAVY_ATOM_COUNT>
19

> <PUBCHEM_ATOM_DEF_STEREO_COUNT>
0

> <PUBCHEM_ATOM_UDEF_STEREO_COUNT>
0

> <PUBCHEM_BOND_DEF_STEREO_COUNT>
0

> <PUBCHEM_BOND_UDEF_STEREO_COUNT>
0

> <PUBCHEM_ISOTOPIC_ATOM_COUNT>
0

> <PUBCHEM_COMPONENT_COUNT>
1

> <PUBCHEM_CACTVS_TAUTO_COUNT>
1

> <PUBCHEM_CONFORMER_ID>
0000EFCA00000001

> <PUBCHEM_MMFF94_ENERGY>
5.7216

> <PUBCHEM_FEATURE_SELFOVERLAP>
15.223

> <PUBCHEM_SHAPE_FINGERPRINT>
11315181 36 17275387624792018451
11638347 137 17095518475461448546
14251764 18 18334855017841701403
14251764 46 13984381076157149128
15510794 2 17989211451865864870
155225 1 18202002110421479065
18335252 98 12468632816501733464
21095086 128 14490471993245132216
21150785 3 11384114146198153340
21362267 2 17702928328129869136
21362267 20 16732704977764172506
21362267 313 18263921043325315760
22224240 67 15936410056762017163
232437 2 16805322189366657474
23521765 1 18341894090918473172
23528940 14 17676496099290185083
23581129 1 18409448085244615012
246663 6 13334736821287248598
33684 2 18410573980861771596
67123 10 18410573993746660484
8209 1 17846498131897195076

> <PUBCHEM_SHAPE_MULTIPOLES>
379.27
39.47
0.99
0.7
33.3
0.08
-0.07
-5.85
-6.06
-1.23
0
-0.46
0.06
0.43

> <PUBCHEM_SHAPE_SELFOVERLAP>
692.028

> <PUBCHEM_SHAPE_VOLUME>
241.9

> <PUBCHEM_COORDINATE_TYPE>
2
5
10

$$$$
