61407
  -OEChem-11232109163D

 40 40  0     0  0  0  0  0  0999 V2000
   -4.0279    0.3770    0.0720 O   0  0  0  0  0  0  0  0  0  0  0  0
   -3.0957   -1.6455    0.6730 O   0  0  0  0  0  0  0  0  0  0  0  0
    3.3492   -0.1792   -0.3934 C   0  0  0  0  0  0  0  0  0  0  0  0
    4.5238   -1.1668   -0.3889 C   0  0  0  0  0  0  0  0  0  0  0  0
    3.6065    0.9803    0.5786 C   0  0  0  0  0  0  0  0  0  0  0  0
    5.8498   -0.4672   -0.6789 C   0  0  0  0  0  0  0  0  0  0  0  0
    4.9340    1.6764    0.2868 C   0  0  0  0  0  0  0  0  0  0  0  0
    2.0433   -0.8925   -0.0484 C   0  0  0  0  0  0  0  0  0  0  0  0
    6.0978    0.6901    0.2835 C   0  0  0  0  0  0  0  0  0  0  0  0
    0.8436    0.0482   -0.1636 C   0  0  0  0  0  0  0  0  0  0  0  0
   -0.4669   -0.6849    0.1396 C   0  0  0  0  0  0  0  0  0  0  0  0
   -1.6895    0.2219   -0.0001 C   0  0  0  0  0  0  0  0  0  0  0  0
   -2.9927   -0.4835    0.3046 C   0  0  0  0  0  0  0  0  0  0  0  0
   -5.3365   -0.1606    0.2881 C   0  0  0  0  0  0  0  0  0  0  0  0
   -6.3453    0.8990   -0.0080 C   0  0  0  0  0  0  0  0  0  0  0  0
   -7.2934    0.7871   -0.9448 C   0  0  0  0  0  0  0  0  0  0  0  0
    3.2622    0.2349   -1.4076 H   0  0  0  0  0  0  0  0  0  0  0  0
    4.3579   -1.9497   -1.1385 H   0  0  0  0  0  0  0  0  0  0  0  0
    4.5864   -1.6680    0.5855 H   0  0  0  0  0  0  0  0  0  0  0  0
    3.6088    0.6124    1.6124 H   0  0  0  0  0  0  0  0  0  0  0  0
    2.8230    1.7409    0.5079 H   0  0  0  0  0  0  0  0  0  0  0  0
    1.9014   -1.7410   -0.7296 H   0  0  0  0  0  0  0  0  0  0  0  0
    2.0929   -1.3060    0.9669 H   0  0  0  0  0  0  0  0  0  0  0  0
    6.6707   -1.1894   -0.6061 H   0  0  0  0  0  0  0  0  0  0  0  0
    5.8458   -0.0908   -1.7093 H   0  0  0  0  0  0  0  0  0  0  0  0
    4.8774    2.1772   -0.6877 H   0  0  0  0  0  0  0  0  0  0  0  0
    5.1143    2.4556    1.0360 H   0  0  0  0  0  0  0  0  0  0  0  0
    7.0213    1.2101    0.0050 H   0  0  0  0  0  0  0  0  0  0  0  0
    6.2453    0.2967    1.2968 H   0  0  0  0  0  0  0  0  0  0  0  0
    0.9252    0.8795    0.5431 H   0  0  0  0  0  0  0  0  0  0  0  0
    0.8006    0.4751   -1.1726 H   0  0  0  0  0  0  0  0  0  0  0  0
   -0.4303   -1.0947    1.1569 H   0  0  0  0  0  0  0  0  0  0  0  0
   -0.5736   -1.5420   -0.5374 H   0  0  0  0  0  0  0  0  0  0  0  0
   -1.7417    0.6026   -1.0266 H   0  0  0  0  0  0  0  0  0  0  0  0
   -1.5978    1.0705    0.6873 H   0  0  0  0  0  0  0  0  0  0  0  0
   -5.4792   -1.0381   -0.3535 H   0  0  0  0  0  0  0  0  0  0  0  0
   -5.4350   -0.4650    1.3364 H   0  0  0  0  0  0  0  0  0  0  0  0
   -6.3003    1.8107    0.5818 H   0  0  0  0  0  0  0  0  0  0  0  0
   -7.9995    1.5936   -1.1106 H   0  0  0  0  0  0  0  0  0  0  0  0
   -7.3829   -0.1021   -1.5590 H   0  0  0  0  0  0  0  0  0  0  0  0
  1 13  1  0  0  0  0
  1 14  1  0  0  0  0
  2 13  2  0  0  0  0
  3  4  1  0  0  0  0
  3  5  1  0  0  0  0
  3  8  1  0  0  0  0
  3 17  1  0  0  0  0
  4  6  1  0  0  0  0
  4 18  1  0  0  0  0
  4 19  1  0  0  0  0
  5  7  1  0  0  0  0
  5 20  1  0  0  0  0
  5 21  1  0  0  0  0
  6  9  1  0  0  0  0
  6 24  1  0  0  0  0
  6 25  1  0  0  0  0
  7  9  1  0  0  0  0
  7 26  1  0  0  0  0
  7 27  1  0  0  0  0
  8 10  1  0  0  0  0
  8 22  1  0  0  0  0
  8 23  1  0  0  0  0
  9 28  1  0  0  0  0
  9 29  1  0  0  0  0
 10 11  1  0  0  0  0
 10 30  1  0  0  0  0
 10 31  1  0  0  0  0
 11 12  1  0  0  0  0
 11 32  1  0  0  0  0
 11 33  1  0  0  0  0
 12 13  1  0  0  0  0
 12 34  1  0  0  0  0
 12 35  1  0  0  0  0
 14 15  1  0  0  0  0
 14 36  1  0  0  0  0
 14 37  1  0  0  0  0
 15 16  2  0  0  0  0
 15 38  1  0  0  0  0
 16 39  1  0  0  0  0
 16 40  1  0  0  0  0
M  END
> <PUBCHEM_COMPOUND_CID>
61407

> <PUBCHEM_CONFORMER_RMSD>
0.8

> <PUBCHEM_CONFORMER_DIVERSEORDER>
1
163
123
91
33
3
147
265
29
213
144
31
203
165
185
5
171
135
116
149
110
198
63
26
200
60
190
275
159
214
35
145
77
168
130
58
238
30
49
266
215
124
11
44
227
279
142
148
267
97
243
19
38
22
45
179
244
271
12
258
178
87
27
94
146
101
15
172
277
43
90
61
7
232
20
70
34
164
269
201
226
223
225
54
112
136
184
197
206
249
187
108
246
155
37
156
115
132
221
81
73
181
8
259
117
237
109
47
191
133
21
154
66
202
36
212
114
71
59
127
67
175
48
99
194
55
68
239
167
224
280
78
72
69
80
128
141
235
65
131
105
32
76
182
86
211
39
13
62
218
276
64
56
119
137
103
40
263
151
216
24
207
25
4
195
107
134
95
93
205
254
150
129
253
42
84
82
252
264
104
268
2
28
140
210
180
177
138
152
121
153
139
85
196
274
158
89
169
228
6
245
50
125
270
256
257
166
199
251
79
16
83
193
162
188
46
236
143
75
250
220
92
231
98
102
113
173
17
23
278
261
176
100
160
273
217
157
189
230
53
51
204
120
248
174
260
255
9
208
209
52
241
14
272
10
242
240
111
222
57
186
126
106
183
161
219
234
88
118
122
192
18
229
247
170
233
41
74
96
262

> <PUBCHEM_MMFF94_PARTIAL_CHARGES>
10
1 -0.43
12 0.06
13 0.66
14 0.42
15 -0.29
16 -0.3
2 -0.57
38 0.15
39 0.15
40 0.15

> <PUBCHEM_EFFECTIVE_ROTOR_COUNT>
9.2

> <PUBCHEM_PHARMACOPHORE_FEATURES>
4
1 16 hydrophobe
1 2 acceptor
4 8 10 11 12 hydrophobe
6 3 4 5 6 7 9 rings

> <PUBCHEM_HEAVY_ATOM_COUNT>
16

> <PUBCHEM_ATOM_DEF_STEREO_COUNT>
0

> <PUBCHEM_ATOM_UDEF_STEREO_COUNT>
0

> <PUBCHEM_BOND_DEF_STEREO_COUNT>
0

> <PUBCHEM_BOND_UDEF_STEREO_COUNT>
0

> <PUBCHEM_ISOTOPIC_ATOM_COUNT>
0

> <PUBCHEM_COMPONENT_COUNT>
1

> <PUBCHEM_CACTVS_TAUTO_COUNT>
1

> <PUBCHEM_CONFORMER_ID>
0000EFDF00000001

> <PUBCHEM_MMFF94_ENERGY>
9.5222

> <PUBCHEM_FEATURE_SELFOVERLAP>
20.297

> <PUBCHEM_SHAPE_FINGERPRINT>
117890 112 18335421262008509025
12091667 2 17894915135971092971
125118 31 18040437685033445957
12616971 3 15864075411437547431
12916748 109 10879994653084343558
13167372 99 18059863809301854216
13533116 47 17677043543277134338
14123256 10 14476961190437383477
14251718 22 11887957648454718603
14251764 46 18411136930809911649
14729087 3 17967527953116070245
15048467 5 18334857216859526265
15183329 4 18343585109995899185
15242439 84 18411985762439994370
16079462 125 18334568049575400013
17834072 33 17561080336501422959
17834076 25 18113338604779313247
18222031 100 14261351362086698274
20157964 124 18202285792700046126
20281389 69 18040432162206188509
20645477 56 18113335306587314871
20645477 70 17917436376434065246
20681677 155 17967813872956716555
20767249 213 18342457045636295165
21150785 3 15913323619804005849
220451 1 13551195502078026786
221357 26 18131070411879511952
23035841 295 11743836967780517989
23402539 116 18411979195419226591
23559900 14 18271238417635843353
246663 6 9151176475920320496
29717793 49 17203335489952714980
300161 21 18334010592753378947
3014965 18 18341332184858843918
33532 11 9151174251259519693
3545911 37 18334297556487069839
4073 2 18114749338517670818
42788 4 18342741818594111658
59755656 215 18335143042390454502
8209 1 18272652337748686541

> <PUBCHEM_SHAPE_MULTIPOLES>
317.53
19.88
1.31
0.78
18.06
0.07
0.06
5.65
2.86
-0.88
-0.11
0.2
0
1.13

> <PUBCHEM_SHAPE_SELFOVERLAP>
609.316

> <PUBCHEM_SHAPE_VOLUME>
192.3

> <PUBCHEM_COORDINATE_TYPE>
2
5
10

$$$$
