61405
  -OEChem-11232109023D

 37 37  0     0  0  0  0  0  0999 V2000
   -3.4359   -0.2271   -0.2664 O   0  0  0  0  0  0  0  0  0  0  0  0
   -2.1426    1.4592    0.6317 O   0  0  0  0  0  0  0  0  0  0  0  0
    2.7174   -0.3989    0.3000 C   0  0  0  0  0  0  0  0  0  0  0  0
    3.8398   -1.4122    0.0376 C   0  0  0  0  0  0  0  0  0  0  0  0
    2.9908    0.9213   -0.4332 C   0  0  0  0  0  0  0  0  0  0  0  0
    5.2102   -0.8397    0.3923 C   0  0  0  0  0  0  0  0  0  0  0  0
    4.3627    1.4898   -0.0779 C   0  0  0  0  0  0  0  0  0  0  0  0
    1.3638   -0.9746   -0.1121 C   0  0  0  0  0  0  0  0  0  0  0  0
    5.4747    0.4768   -0.3317 C   0  0  0  0  0  0  0  0  0  0  0  0
    0.2338    0.0079    0.1790 C   0  0  0  0  0  0  0  0  0  0  0  0
   -1.1219   -0.5857   -0.2002 C   0  0  0  0  0  0  0  0  0  0  0  0
   -2.2612    0.3564    0.1160 C   0  0  0  0  0  0  0  0  0  0  0  0
   -4.6153    0.5479   -0.0282 C   0  0  0  0  0  0  0  0  0  0  0  0
   -5.8014   -0.2265   -0.4990 C   0  0  0  0  0  0  0  0  0  0  0  0
   -6.8151   -0.5947    0.2920 C   0  0  0  0  0  0  0  0  0  0  0  0
    2.6930   -0.1934    1.3792 H   0  0  0  0  0  0  0  0  0  0  0  0
    3.8361   -1.7087   -1.0191 H   0  0  0  0  0  0  0  0  0  0  0  0
    3.6665   -2.3228    0.6235 H   0  0  0  0  0  0  0  0  0  0  0  0
    2.2556    1.6866   -0.1672 H   0  0  0  0  0  0  0  0  0  0  0  0
    2.9282    0.7713   -1.5184 H   0  0  0  0  0  0  0  0  0  0  0  0
    5.9902   -1.5649    0.1346 H   0  0  0  0  0  0  0  0  0  0  0  0
    5.2690   -0.6789    1.4758 H   0  0  0  0  0  0  0  0  0  0  0  0
    4.3732    1.7857    0.9784 H   0  0  0  0  0  0  0  0  0  0  0  0
    4.5497    2.3961   -0.6650 H   0  0  0  0  0  0  0  0  0  0  0  0
    1.3681   -1.2252   -1.1805 H   0  0  0  0  0  0  0  0  0  0  0  0
    1.1843   -1.9099    0.4328 H   0  0  0  0  0  0  0  0  0  0  0  0
    6.4343    0.8921   -0.0035 H   0  0  0  0  0  0  0  0  0  0  0  0
    5.5589    0.2900   -1.4093 H   0  0  0  0  0  0  0  0  0  0  0  0
    0.3528    0.9332   -0.3934 H   0  0  0  0  0  0  0  0  0  0  0  0
    0.2378    0.2810    1.2414 H   0  0  0  0  0  0  0  0  0  0  0  0
   -1.2876   -1.5155    0.3556 H   0  0  0  0  0  0  0  0  0  0  0  0
   -1.1436   -0.8022   -1.2742 H   0  0  0  0  0  0  0  0  0  0  0  0
   -4.6881    0.7792    1.0410 H   0  0  0  0  0  0  0  0  0  0  0  0
   -4.5533    1.4853   -0.5927 H   0  0  0  0  0  0  0  0  0  0  0  0
   -5.8352   -0.4989   -1.5505 H   0  0  0  0  0  0  0  0  0  0  0  0
   -7.6508   -1.1557   -0.1118 H   0  0  0  0  0  0  0  0  0  0  0  0
   -6.8310   -0.3466    1.3475 H   0  0  0  0  0  0  0  0  0  0  0  0
  1 12  1  0  0  0  0
  1 13  1  0  0  0  0
  2 12  2  0  0  0  0
  3  4  1  0  0  0  0
  3  5  1  0  0  0  0
  3  8  1  0  0  0  0
  3 16  1  0  0  0  0
  4  6  1  0  0  0  0
  4 17  1  0  0  0  0
  4 18  1  0  0  0  0
  5  7  1  0  0  0  0
  5 19  1  0  0  0  0
  5 20  1  0  0  0  0
  6  9  1  0  0  0  0
  6 21  1  0  0  0  0
  6 22  1  0  0  0  0
  7  9  1  0  0  0  0
  7 23  1  0  0  0  0
  7 24  1  0  0  0  0
  8 10  1  0  0  0  0
  8 25  1  0  0  0  0
  8 26  1  0  0  0  0
  9 27  1  0  0  0  0
  9 28  1  0  0  0  0
 10 11  1  0  0  0  0
 10 29  1  0  0  0  0
 10 30  1  0  0  0  0
 11 12  1  0  0  0  0
 11 31  1  0  0  0  0
 11 32  1  0  0  0  0
 13 14  1  0  0  0  0
 13 33  1  0  0  0  0
 13 34  1  0  0  0  0
 14 15  2  0  0  0  0
 14 35  1  0  0  0  0
 15 36  1  0  0  0  0
 15 37  1  0  0  0  0
M  END
> <PUBCHEM_COMPOUND_CID>
61405

> <PUBCHEM_CONFORMER_RMSD>
0.8

> <PUBCHEM_CONFORMER_DIVERSEORDER>
1
12
77
132
40
59
75
5
65
6
61
43
31
56
67
89
102
134
113
11
126
23
45
4
149
63
105
114
7
55
50
15
47
99
94
128
147
30
70
52
144
64
37
16
139
142
78
93
38
10
148
22
90
116
124
137
69
18
104
129
112
3
35
130
60
39
91
20
81
33
115
98
117
79
85
86
36
46
127
32
24
53
41
143
108
150
84
25
141
27
74
111
29
96
80
68
122
17
83
51
9
19
26
118
48
103
110
123
21
145
140
34
87
76
72
8
135
107
125
109
2
58
120
97
42
82
88
146
101
71
66
100
119
95
73
44
106
57
28
54
136
92
131
13
133
49
121
14
62
138

> <PUBCHEM_MMFF94_PARTIAL_CHARGES>
10
1 -0.43
11 0.06
12 0.66
13 0.42
14 -0.29
15 -0.3
2 -0.57
35 0.15
36 0.15
37 0.15

> <PUBCHEM_EFFECTIVE_ROTOR_COUNT>
8.2

> <PUBCHEM_PHARMACOPHORE_FEATURES>
3
1 15 hydrophobe
1 2 acceptor
6 3 4 5 6 7 9 rings

> <PUBCHEM_HEAVY_ATOM_COUNT>
15

> <PUBCHEM_ATOM_DEF_STEREO_COUNT>
0

> <PUBCHEM_ATOM_UDEF_STEREO_COUNT>
0

> <PUBCHEM_BOND_DEF_STEREO_COUNT>
0

> <PUBCHEM_BOND_UDEF_STEREO_COUNT>
0

> <PUBCHEM_ISOTOPIC_ATOM_COUNT>
0

> <PUBCHEM_COMPONENT_COUNT>
1

> <PUBCHEM_CACTVS_TAUTO_COUNT>
1

> <PUBCHEM_CONFORMER_ID>
0000EFDD00000001

> <PUBCHEM_MMFF94_ENERGY>
9.9776

> <PUBCHEM_FEATURE_SELFOVERLAP>
15.223

> <PUBCHEM_SHAPE_FINGERPRINT>
10354089 29 18408040719547062876
11287383 113 18260831514092803051
12107183 9 17619067226814513026
12236239 1 18412262822443356797
12815109 37 11241971481660715838
12916748 109 18131354089989328660
13167372 99 18340207384437300833
13533116 47 18334009454639962210
14123238 8 17988924461480673835
1420 363 18260271850037360979
14251718 22 18333731321326700771
14251732 16 18261957452891760619
14251764 18 18335137584193461216
14251764 46 18334292076662629599
17834072 33 18412542123918773919
17834076 25 18410292518775237591
19489759 90 15936407828233269933
200 152 18413386523490487185
20645477 70 18337671915187700366
21267235 1 18341618083931138918
220451 1 17203608190258765447
22224240 67 14634868687016779392
22896161 15 18335984263802354675
23035841 295 18131069351265013871
23402539 116 18343294873396525015
23536379 177 18335700525203533009
23557571 272 16056610832421480481
34797466 226 17203334442002228828
3545911 37 18408041827374396614
42788 4 18407759227095116375
4325135 7 18413107269117305495
4463277 17 18343865511642261681
474229 33 18413671318635654007
522135 26 18407759223296092654
542803 24 18413107247336520009
59755656 520 17603862334239595379

> <PUBCHEM_SHAPE_MULTIPOLES>
296.95
16.44
1.29
0.69
16.54
0.13
0
-0.75
0.31
-1.27
-0.05
0.04
0.02
-0.36

> <PUBCHEM_SHAPE_SELFOVERLAP>
572.104

> <PUBCHEM_SHAPE_VOLUME>
179.2

> <PUBCHEM_COORDINATE_TYPE>
2
5
10

$$$$
