61406
  -OEChem-11232109413D

 43 43  0     0  0  0  0  0  0999 V2000
   -4.7432    0.1421    0.3048 O   0  0  0  0  0  0  0  0  0  0  0  0
   -3.5359   -1.5137   -0.7539 O   0  0  0  0  0  0  0  0  0  0  0  0
    3.9556    0.2861   -0.2117 C   0  0  0  0  0  0  0  0  0  0  0  0
    4.3698   -0.9365    0.6181 C   0  0  0  0  0  0  0  0  0  0  0  0
    5.0552    1.3565   -0.1942 C   0  0  0  0  0  0  0  0  0  0  0  0
    2.6350    0.8611    0.2972 C   0  0  0  0  0  0  0  0  0  0  0  0
    5.7149   -1.4976    0.1625 C   0  0  0  0  0  0  0  0  0  0  0  0
    6.3990    0.7914   -0.6487 C   0  0  0  0  0  0  0  0  0  0  0  0
    6.8033   -0.4289    0.1727 C   0  0  0  0  0  0  0  0  0  0  0  0
    1.4421    0.0368   -0.1862 C   0  0  0  0  0  0  0  0  0  0  0  0
    0.1196    0.6348    0.2980 C   0  0  0  0  0  0  0  0  0  0  0  0
   -1.0730   -0.2085   -0.1633 C   0  0  0  0  0  0  0  0  0  0  0  0
   -2.4080    0.3495    0.3296 C   0  0  0  0  0  0  0  0  0  0  0  0
   -3.5975   -0.4758   -0.1094 C   0  0  0  0  0  0  0  0  0  0  0  0
   -5.9631   -0.5089   -0.0649 C   0  0  0  0  0  0  0  0  0  0  0  0
   -7.1106    0.2881    0.4602 C   0  0  0  0  0  0  0  0  0  0  0  0
   -8.0634    0.8236   -0.3108 C   0  0  0  0  0  0  0  0  0  0  0  0
    3.8275   -0.0314   -1.2559 H   0  0  0  0  0  0  0  0  0  0  0  0
    3.6181   -1.7295    0.5413 H   0  0  0  0  0  0  0  0  0  0  0  0
    4.4371   -0.6640    1.6792 H   0  0  0  0  0  0  0  0  0  0  0  0
    5.1594    1.7669    0.8184 H   0  0  0  0  0  0  0  0  0  0  0  0
    4.7779    2.1913   -0.8490 H   0  0  0  0  0  0  0  0  0  0  0  0
    2.6360    0.9263    1.3922 H   0  0  0  0  0  0  0  0  0  0  0  0
    2.5129    1.8858   -0.0771 H   0  0  0  0  0  0  0  0  0  0  0  0
    6.0080   -2.3277    0.8153 H   0  0  0  0  0  0  0  0  0  0  0  0
    5.6150   -1.9075   -0.8500 H   0  0  0  0  0  0  0  0  0  0  0  0
    6.3388    0.5146   -1.7085 H   0  0  0  0  0  0  0  0  0  0  0  0
    7.1710    1.5646   -0.5643 H   0  0  0  0  0  0  0  0  0  0  0  0
    7.0040   -0.1224    1.2067 H   0  0  0  0  0  0  0  0  0  0  0  0
    7.7355   -0.8477   -0.2230 H   0  0  0  0  0  0  0  0  0  0  0  0
    1.4407   -0.0069   -1.2822 H   0  0  0  0  0  0  0  0  0  0  0  0
    1.5211   -0.9934    0.1779 H   0  0  0  0  0  0  0  0  0  0  0  0
    0.1221    0.6946    1.3931 H   0  0  0  0  0  0  0  0  0  0  0  0
    0.0143    1.6579   -0.0826 H   0  0  0  0  0  0  0  0  0  0  0  0
   -1.0825   -0.2625   -1.2593 H   0  0  0  0  0  0  0  0  0  0  0  0
   -0.9551   -1.2380    0.1978 H   0  0  0  0  0  0  0  0  0  0  0  0
   -2.5393    1.3666   -0.0571 H   0  0  0  0  0  0  0  0  0  0  0  0
   -2.4090    0.3850    1.4250 H   0  0  0  0  0  0  0  0  0  0  0  0
   -5.9893   -1.5099    0.3807 H   0  0  0  0  0  0  0  0  0  0  0  0
   -6.0083   -0.6027   -1.1564 H   0  0  0  0  0  0  0  0  0  0  0  0
   -7.1682    0.4325    1.5359 H   0  0  0  0  0  0  0  0  0  0  0  0
   -8.8739    1.3916    0.1327 H   0  0  0  0  0  0  0  0  0  0  0  0
   -8.0535    0.7074   -1.3889 H   0  0  0  0  0  0  0  0  0  0  0  0
  1 14  1  0  0  0  0
  1 15  1  0  0  0  0
  2 14  2  0  0  0  0
  3  4  1  0  0  0  0
  3  5  1  0  0  0  0
  3  6  1  0  0  0  0
  3 18  1  0  0  0  0
  4  7  1  0  0  0  0
  4 19  1  0  0  0  0
  4 20  1  0  0  0  0
  5  8  1  0  0  0  0
  5 21  1  0  0  0  0
  5 22  1  0  0  0  0
  6 10  1  0  0  0  0
  6 23  1  0  0  0  0
  6 24  1  0  0  0  0
  7  9  1  0  0  0  0
  7 25  1  0  0  0  0
  7 26  1  0  0  0  0
  8  9  1  0  0  0  0
  8 27  1  0  0  0  0
  8 28  1  0  0  0  0
  9 29  1  0  0  0  0
  9 30  1  0  0  0  0
 10 11  1  0  0  0  0
 10 31  1  0  0  0  0
 10 32  1  0  0  0  0
 11 12  1  0  0  0  0
 11 33  1  0  0  0  0
 11 34  1  0  0  0  0
 12 13  1  0  0  0  0
 12 35  1  0  0  0  0
 12 36  1  0  0  0  0
 13 14  1  0  0  0  0
 13 37  1  0  0  0  0
 13 38  1  0  0  0  0
 15 16  1  0  0  0  0
 15 39  1  0  0  0  0
 15 40  1  0  0  0  0
 16 17  2  0  0  0  0
 16 41  1  0  0  0  0
 17 42  1  0  0  0  0
 17 43  1  0  0  0  0
M  END
> <PUBCHEM_COMPOUND_CID>
61406

> <PUBCHEM_CONFORMER_RMSD>
0.8

> <PUBCHEM_CONFORMER_DIVERSEORDER>
1
147
326
358
34
215
114
125
96
36
121
18
205
133
102
15
282
174
92
260
269
6
196
367
253
20
297
162
86
259
182
142
352
43
13
120
64
209
9
373
94
213
35
292
58
378
179
312
281
360
71
93
175
192
7
301
197
306
318
103
54
178
349
32
73
158
26
163
14
97
316
22
371
131
5
289
38
84
101
379
113
88
346
25
339
74
332
89
261
382
171
98
234
19
265
31
327
177
188
368
128
227
204
8
243
151
4
107
144
12
109
129
72
376
366
342
207
203
274
195
194
210
219
304
345
200
193
134
152
251
299
225
280
369
135
361
47
355
248
99
264
300
201
254
78
252
116
49
10
65
186
66
156
83
138
322
104
180
149
3
169
217
344
212
17
41
305
279
323
206
224
21
348
130
357
321
79
52
263
111
2
112
273
242
181
287
208
364
272
75
236
362
278
80
302
290
91
167
372
268
67
82
123
184
145
185
70
375
118
276
55
141
341
50
284
347
69
336
257
286
298
155
100
85
262
231
214
291
239
124
222
317
380
220
311
216
157
62
353
57
377
68
250
27
296
42
199
11
235
374
340
122
173
285
288
223
164
127
267
148
56
293
295
110
232
115
136
315
132
365
53
249
309
166
61
335
168
45
76
139
119
350
275
30
117
233
190
229
63
161
270
24
202
363
381
29
245
324
140
329
39
307
283
359
187
160
51
370
165
126
40
60
330
255
247
237
244
256
331
198
44
146
271
218
48
16
383
95
23
37
105
238
81
294
226
313
310
87
154
343
325
266
77
153
328
228
28
159
351
189
277
319
334
314
90
240
303
106
176
211
356
337
59
333
183
320
258
354
308
191
221
172
338
230
150
137
46
241
246
143
108
33
170

> <PUBCHEM_MMFF94_PARTIAL_CHARGES>
10
1 -0.43
13 0.06
14 0.66
15 0.42
16 -0.29
17 -0.3
2 -0.57
41 0.15
42 0.15
43 0.15

> <PUBCHEM_EFFECTIVE_ROTOR_COUNT>
10.2

> <PUBCHEM_PHARMACOPHORE_FEATURES>
4
1 17 hydrophobe
1 2 acceptor
5 6 10 11 12 13 hydrophobe
6 3 4 5 7 8 9 rings

> <PUBCHEM_HEAVY_ATOM_COUNT>
17

> <PUBCHEM_ATOM_DEF_STEREO_COUNT>
0

> <PUBCHEM_ATOM_UDEF_STEREO_COUNT>
0

> <PUBCHEM_BOND_DEF_STEREO_COUNT>
0

> <PUBCHEM_BOND_UDEF_STEREO_COUNT>
0

> <PUBCHEM_ISOTOPIC_ATOM_COUNT>
0

> <PUBCHEM_COMPONENT_COUNT>
1

> <PUBCHEM_CACTVS_TAUTO_COUNT>
1

> <PUBCHEM_CONFORMER_ID>
0000EFDE00000001

> <PUBCHEM_MMFF94_ENERGY>
9.2756

> <PUBCHEM_FEATURE_SELFOVERLAP>
20.297

> <PUBCHEM_SHAPE_FINGERPRINT>
10299344 5 18410575089248358971
10354089 29 10303814281347909866
11315181 36 17489592298772859163
11524674 6 16559030515256084855
11719270 70 17561084683319972806
12091667 2 16732982038442188193
12236239 1 18410575106512474771
12916748 109 15357691985807163628
13073987 5 13407057185735332309
13533116 47 18409727336003636994
13885169 127 18113337510248292723
14123256 10 11386368140597741003
1420 363 16805323296898520400
14251752 14 18411979140133290785
14251764 18 18272936007538321993
14251764 46 18411138034627069264
14933364 13 18040154015702492773
15183329 4 18131354098658449841
17834072 33 18411136957370967212
17834076 25 18410575093258294761
18006028 8 17275103929575815273
19489759 90 15913614964884529859
20281389 69 18411417311018887569
20621476 8 17894909607899757645
20645477 70 18333731283205108898
21150785 3 13551196584578765422
21315763 28 18411981382385716081
220451 1 18411419535663961518
22224240 67 13973962099413795172
23035841 295 18408602573830312019
23521765 1 18341895195015270513
23536379 177 18408886234808167865
23559900 14 18199742707903737593
28498 318 18412262800762857143
29717793 49 18342179968822172900
33684 2 18410573980856490352
34797466 226 14490197090038304766
4073 2 17968382363438983754
4325135 7 18411420605400643838
4463277 17 18333731325590253421
59755656 520 18040712593743580539
8209 1 18342739620124782985

> <PUBCHEM_SHAPE_MULTIPOLES>
338.11
24.04
1.22
0.73
22.52
0.15
-0.01
-0.96
-0.69
-1.18
-0.07
-0.03
0.02
-0.63

> <PUBCHEM_SHAPE_SELFOVERLAP>
646.826

> <PUBCHEM_SHAPE_VOLUME>
205.4

> <PUBCHEM_COORDINATE_TYPE>
2
5
10

$$$$
