61410
  -OEChem-11232109453D

 36 35  0     0  0  0  0  0  0999 V2000
    3.5629    0.2983   -0.2087 O   0  0  0  0  0  0  0  0  0  0  0  0
    2.3932   -1.6706    0.0836 O   0  0  0  0  0  0  0  0  0  0  0  0
   -2.6107   -0.3002    0.0314 C   0  0  0  0  0  0  0  0  0  0  0  0
   -3.8870    0.5414   -0.0614 C   0  0  0  0  0  0  0  0  0  0  0  0
   -1.3298    0.5120   -0.1753 C   0  0  0  0  0  0  0  0  0  0  0  0
   -5.1665   -0.2656    0.1703 C   0  0  0  0  0  0  0  0  0  0  0  0
   -0.0868   -0.3766   -0.0593 C   0  0  0  0  0  0  0  0  0  0  0  0
   -6.4103    0.6067   -0.0054 C   0  0  0  0  0  0  0  0  0  0  0  0
    1.2101    0.4094   -0.2307 C   0  0  0  0  0  0  0  0  0  0  0  0
   -7.6864   -0.1976    0.1859 C   0  0  0  0  0  0  0  0  0  0  0  0
    2.4355   -0.4607   -0.0985 C   0  0  0  0  0  0  0  0  0  0  0  0
    4.7985   -0.4148   -0.0968 C   0  0  0  0  0  0  0  0  0  0  0  0
    5.9258    0.5532   -0.2385 C   0  0  0  0  0  0  0  0  0  0  0  0
    6.8516    0.7650    0.7034 C   0  0  0  0  0  0  0  0  0  0  0  0
   -2.6557   -1.1021   -0.7160 H   0  0  0  0  0  0  0  0  0  0  0  0
   -2.5756   -0.7857    1.0146 H   0  0  0  0  0  0  0  0  0  0  0  0
   -3.8361    1.3547    0.6732 H   0  0  0  0  0  0  0  0  0  0  0  0
   -3.9289    1.0120   -1.0517 H   0  0  0  0  0  0  0  0  0  0  0  0
   -1.3511    0.9888   -1.1625 H   0  0  0  0  0  0  0  0  0  0  0  0
   -1.2800    1.3133    0.5716 H   0  0  0  0  0  0  0  0  0  0  0  0
   -5.1526   -0.6951    1.1792 H   0  0  0  0  0  0  0  0  0  0  0  0
   -5.2024   -1.1026   -0.5374 H   0  0  0  0  0  0  0  0  0  0  0  0
   -0.1357   -1.1723   -0.8134 H   0  0  0  0  0  0  0  0  0  0  0  0
   -0.0846   -0.8740    0.9190 H   0  0  0  0  0  0  0  0  0  0  0  0
   -6.4153    1.0522   -1.0071 H   0  0  0  0  0  0  0  0  0  0  0  0
   -6.3913    1.4313    0.7166 H   0  0  0  0  0  0  0  0  0  0  0  0
    1.2301    0.8770   -1.2213 H   0  0  0  0  0  0  0  0  0  0  0  0
    1.2664    1.1934    0.5330 H   0  0  0  0  0  0  0  0  0  0  0  0
   -7.7286   -0.6333    1.1893 H   0  0  0  0  0  0  0  0  0  0  0  0
   -7.7514   -1.0101   -0.5449 H   0  0  0  0  0  0  0  0  0  0  0  0
   -8.5627    0.4454    0.0576 H   0  0  0  0  0  0  0  0  0  0  0  0
    4.8342   -0.9304    0.8702 H   0  0  0  0  0  0  0  0  0  0  0  0
    4.8624   -1.1579   -0.8999 H   0  0  0  0  0  0  0  0  0  0  0  0
    5.9913    1.1114   -1.1686 H   0  0  0  0  0  0  0  0  0  0  0  0
    7.6485    1.4820    0.5385 H   0  0  0  0  0  0  0  0  0  0  0  0
    6.8328    0.2329    1.6480 H   0  0  0  0  0  0  0  0  0  0  0  0
  1 11  1  0  0  0  0
  1 12  1  0  0  0  0
  2 11  2  0  0  0  0
  3  4  1  0  0  0  0
  3  5  1  0  0  0  0
  3 15  1  0  0  0  0
  3 16  1  0  0  0  0
  4  6  1  0  0  0  0
  4 17  1  0  0  0  0
  4 18  1  0  0  0  0
  5  7  1  0  0  0  0
  5 19  1  0  0  0  0
  5 20  1  0  0  0  0
  6  8  1  0  0  0  0
  6 21  1  0  0  0  0
  6 22  1  0  0  0  0
  7  9  1  0  0  0  0
  7 23  1  0  0  0  0
  7 24  1  0  0  0  0
  8 10  1  0  0  0  0
  8 25  1  0  0  0  0
  8 26  1  0  0  0  0
  9 11  1  0  0  0  0
  9 27  1  0  0  0  0
  9 28  1  0  0  0  0
 10 29  1  0  0  0  0
 10 30  1  0  0  0  0
 10 31  1  0  0  0  0
 12 13  1  0  0  0  0
 12 32  1  0  0  0  0
 12 33  1  0  0  0  0
 13 14  2  0  0  0  0
 13 34  1  0  0  0  0
 14 35  1  0  0  0  0
 14 36  1  0  0  0  0
M  END
> <PUBCHEM_COMPOUND_CID>
61410

> <PUBCHEM_CONFORMER_RMSD>
1

> <PUBCHEM_CONFORMER_DIVERSEORDER>
1
128
49
167
349
42
5
225
335
384
37
107
44
316
217
215
411
7
25
134
160
277
492
8
38
6
320
480
139
117
241
13
129
46
52
370
154
146
56
245
493
10
157
98
390
15
498
45
436
2
282
77
121
343
81
88
452
85
168
312
226
3
328
478
47
53
111
116
332
279
16
239
173
209
249
115
204
273
124
185
28
455
517
174
34
433
70
372
198
464
22
344
462
184

> <PUBCHEM_MMFF94_PARTIAL_CHARGES>
10
1 -0.43
11 0.66
12 0.42
13 -0.29
14 -0.3
2 -0.57
34 0.15
35 0.15
36 0.15
9 0.06

> <PUBCHEM_EFFECTIVE_ROTOR_COUNT>
10

> <PUBCHEM_PHARMACOPHORE_FEATURES>
3
1 10 hydrophobe
1 14 hydrophobe
1 2 acceptor

> <PUBCHEM_HEAVY_ATOM_COUNT>
14

> <PUBCHEM_ATOM_DEF_STEREO_COUNT>
0

> <PUBCHEM_ATOM_UDEF_STEREO_COUNT>
0

> <PUBCHEM_BOND_DEF_STEREO_COUNT>
0

> <PUBCHEM_BOND_UDEF_STEREO_COUNT>
0

> <PUBCHEM_ISOTOPIC_ATOM_COUNT>
0

> <PUBCHEM_COMPONENT_COUNT>
1

> <PUBCHEM_CACTVS_TAUTO_COUNT>
1

> <PUBCHEM_CONFORMER_ID>
0000EFE200000001

> <PUBCHEM_MMFF94_ENERGY>
2.1441

> <PUBCHEM_FEATURE_SELFOVERLAP>
15.223

> <PUBCHEM_SHAPE_FINGERPRINT>
10968037 39 18343582945828000445
11315181 36 17775287180100176595
11638347 137 17240760662607491970
12091667 2 18060138739760806893
12714333 28 18131069342300266536
12815109 37 18334296465697128525
13073987 5 18188489060796877017
13533116 47 14764355881553518334
14123256 10 18273215296402942209
14251718 22 18273215292092014129
14251764 18 18408040710978207801
14251764 46 17676205780199583973
14729087 3 18187641376361477765
15048467 5 18272932725898341168
15242439 84 12175616278734086311
17834076 25 18410575088963333965
20281389 69 18342174453667803632
20645477 70 18264770965144426638
20735858 18 16805600374250687440
20767249 213 18131914866415030581
21130983 4 18060139851197507192
21150785 3 15985103024414880241
220451 1 15195563481580010485
22224240 67 18333728044055858914
22896161 15 18412825807120571831
23035841 295 10375870771036118701
23402539 116 12396301482427847763
23521765 1 18341895194999413765
28498 318 7853582309056100177
300161 21 18410852153383411983
33532 11 11963380843776280880
33684 2 18410855455833194499
3545911 37 18410856559835020415
42788 4 18409730651164208893
4463277 17 18201720643501868521
57583515 80 11025797592263047357
59682541 35 18334295413256354001
8209 1 18410856563998157901

> <PUBCHEM_SHAPE_MULTIPOLES>
276.37
21.16
0.96
0.66
9.84
0.18
0.02
-3.42
2.46
-0.55
0.03
-0.22
-0.04
0.25

> <PUBCHEM_SHAPE_SELFOVERLAP>
505.144

> <PUBCHEM_SHAPE_VOLUME>
175.7

> <PUBCHEM_COORDINATE_TYPE>
2
5
10

$$$$
