61412
  -OEChem-11232108543D

 40 39  0     0  0  0  0  0  0999 V2000
    4.7196   -0.3174    0.2209 O   0  0  0  0  0  0  0  0  0  0  0  0
    3.6529    1.7030   -0.0956 O   0  0  0  0  0  0  0  0  0  0  0  0
   -1.4356    0.4377   -0.0181 C   0  0  0  0  0  0  0  0  0  0  0  0
   -2.6931   -0.4306    0.0672 C   0  0  0  0  0  0  0  0  0  0  0  0
   -0.1679   -0.3982    0.1706 C   0  0  0  0  0  0  0  0  0  0  0  0
   -3.9572    0.4031   -0.1537 C   0  0  0  0  0  0  0  0  0  0  0  0
    1.0901    0.4678    0.0517 C   0  0  0  0  0  0  0  0  0  0  0  0
   -5.2466   -0.4226   -0.1096 C   0  0  0  0  0  0  0  0  0  0  0  0
    2.3755   -0.3457    0.2028 C   0  0  0  0  0  0  0  0  0  0  0  0
   -6.5084    0.4085   -0.3554 C   0  0  0  0  0  0  0  0  0  0  0  0
    3.6285    0.4952    0.0967 C   0  0  0  0  0  0  0  0  0  0  0  0
   -7.7386   -0.4503   -0.3139 C   0  0  0  0  0  0  0  0  0  0  0  0
   -8.7633   -0.2488    0.5219 C   0  0  0  0  0  0  0  0  0  0  0  0
    5.9890    0.3343    0.1113 C   0  0  0  0  0  0  0  0  0  0  0  0
    7.0673   -0.6859    0.2685 C   0  0  0  0  0  0  0  0  0  0  0  0
    7.9877   -0.9501   -0.6653 C   0  0  0  0  0  0  0  0  0  0  0  0
   -1.4768    1.2222    0.7472 H   0  0  0  0  0  0  0  0  0  0  0  0
   -1.4019    0.9385   -0.9934 H   0  0  0  0  0  0  0  0  0  0  0  0
   -2.7411   -0.9177    1.0485 H   0  0  0  0  0  0  0  0  0  0  0  0
   -2.6440   -1.2252   -0.6871 H   0  0  0  0  0  0  0  0  0  0  0  0
   -0.1881   -0.8843    1.1533 H   0  0  0  0  0  0  0  0  0  0  0  0
   -0.1359   -1.1934   -0.5841 H   0  0  0  0  0  0  0  0  0  0  0  0
   -4.0095    1.1904    0.6084 H   0  0  0  0  0  0  0  0  0  0  0  0
   -3.8915    0.9077   -1.1258 H   0  0  0  0  0  0  0  0  0  0  0  0
    1.0956    0.9760   -0.9209 H   0  0  0  0  0  0  0  0  0  0  0  0
    1.0651    1.2563    0.8145 H   0  0  0  0  0  0  0  0  0  0  0  0
   -5.3191   -0.9169    0.8679 H   0  0  0  0  0  0  0  0  0  0  0  0
   -5.1828   -1.2210   -0.8604 H   0  0  0  0  0  0  0  0  0  0  0  0
    2.4148   -1.1121   -0.5797 H   0  0  0  0  0  0  0  0  0  0  0  0
    2.3820   -0.8389    1.1815 H   0  0  0  0  0  0  0  0  0  0  0  0
   -6.4488    0.8845   -1.3414 H   0  0  0  0  0  0  0  0  0  0  0  0
   -6.5683    1.2141    0.3863 H   0  0  0  0  0  0  0  0  0  0  0  0
   -7.7985   -1.2734   -1.0213 H   0  0  0  0  0  0  0  0  0  0  0  0
   -9.6292   -0.9013    0.4965 H   0  0  0  0  0  0  0  0  0  0  0  0
   -8.7580    0.5626    1.2412 H   0  0  0  0  0  0  0  0  0  0  0  0
    6.0555    0.8391   -0.8597 H   0  0  0  0  0  0  0  0  0  0  0  0
    6.0837    1.0803    0.9086 H   0  0  0  0  0  0  0  0  0  0  0  0
    7.0998   -1.2387    1.2037 H   0  0  0  0  0  0  0  0  0  0  0  0
    8.7480   -1.7033   -0.4893 H   0  0  0  0  0  0  0  0  0  0  0  0
    8.0007   -0.4258   -1.6144 H   0  0  0  0  0  0  0  0  0  0  0  0
  1 11  1  0  0  0  0
  1 14  1  0  0  0  0
  2 11  2  0  0  0  0
  3  4  1  0  0  0  0
  3  5  1  0  0  0  0
  3 17  1  0  0  0  0
  3 18  1  0  0  0  0
  4  6  1  0  0  0  0
  4 19  1  0  0  0  0
  4 20  1  0  0  0  0
  5  7  1  0  0  0  0
  5 21  1  0  0  0  0
  5 22  1  0  0  0  0
  6  8  1  0  0  0  0
  6 23  1  0  0  0  0
  6 24  1  0  0  0  0
  7  9  1  0  0  0  0
  7 25  1  0  0  0  0
  7 26  1  0  0  0  0
  8 10  1  0  0  0  0
  8 27  1  0  0  0  0
  8 28  1  0  0  0  0
  9 11  1  0  0  0  0
  9 29  1  0  0  0  0
  9 30  1  0  0  0  0
 10 12  1  0  0  0  0
 10 31  1  0  0  0  0
 10 32  1  0  0  0  0
 12 13  2  0  0  0  0
 12 33  1  0  0  0  0
 13 34  1  0  0  0  0
 13 35  1  0  0  0  0
 14 15  1  0  0  0  0
 14 36  1  0  0  0  0
 14 37  1  0  0  0  0
 15 16  2  0  0  0  0
 15 38  1  0  0  0  0
 16 39  1  0  0  0  0
 16 40  1  0  0  0  0
M  END
> <PUBCHEM_COMPOUND_CID>
61412

> <PUBCHEM_CONFORMER_RMSD>
1

> <PUBCHEM_CONFORMER_DIVERSEORDER>
1
166
155
19
34
238
7
98
90
72
218
44
126
69
111
121
156
104
24
206
83
101
57
96
38
165
125
145
52
63
181
48
21
229
26
128
168
108
9
78
20
215
118
237
28
32
132
198
94
81
16
173
150
140
163
114
45
225
100
77
84
117
169
116
194
226
70
71
228
64
75
15
161
167
27
14
182
50
122
87
136
196
195
222
212
107
133
190
250
207
199
243
160
68
4
172
186
204
17
241
56
22
157
179
76
115
170
2
59
164
178
25
103
209
65
123
95
85
177
184
47
154
92
180
51
230
211
119
102
58
188
127
67
227
89
79
224
37
113
146
74
97
23
148
86
142
129
33
248
246
106
105
202
240
55
6
231
61
175
249
159
152
192
12
3
80
171
162
93
247
149
112
232
130
88
35
82
174
205
11
131
200
46
39
223
10
239
214
220
176
210
91
208
8
203
141
187
189
144
244
99
41
62
151
245
5
143
183
60
134
43
193
242
234
73
18
53
235
216
110
120
219
30
201
29
49
135
66
221
54
147
36
137
40
217
185
31
191
236
197
124
13
213
153
139
109
158
42
233
138

> <PUBCHEM_MMFF94_PARTIAL_CHARGES>
16
1 -0.43
10 0.14
11 0.66
12 -0.29
13 -0.3
14 0.42
15 -0.29
16 -0.3
2 -0.57
33 0.15
34 0.15
35 0.15
38 0.15
39 0.15
40 0.15
9 0.06

> <PUBCHEM_EFFECTIVE_ROTOR_COUNT>
12

> <PUBCHEM_PHARMACOPHORE_FEATURES>
3
1 13 hydrophobe
1 16 hydrophobe
1 2 acceptor

> <PUBCHEM_HEAVY_ATOM_COUNT>
16

> <PUBCHEM_ATOM_DEF_STEREO_COUNT>
0

> <PUBCHEM_ATOM_UDEF_STEREO_COUNT>
0

> <PUBCHEM_BOND_DEF_STEREO_COUNT>
0

> <PUBCHEM_BOND_UDEF_STEREO_COUNT>
0

> <PUBCHEM_ISOTOPIC_ATOM_COUNT>
0

> <PUBCHEM_COMPONENT_COUNT>
1

> <PUBCHEM_CACTVS_TAUTO_COUNT>
1

> <PUBCHEM_CONFORMER_ID>
0000EFE400000001

> <PUBCHEM_MMFF94_ENERGY>
4.8417

> <PUBCHEM_FEATURE_SELFOVERLAP>
15.223

> <PUBCHEM_SHAPE_FINGERPRINT>
11638347 137 14692576494802663478
12091667 2 18040433296778745773
13073987 5 12391249179089974786
13533116 47 16733250270995859921
14123256 10 17561083605472649483
14251764 18 17894627033105431779
14251764 46 15913327996507386838
14729087 3 12031794652348385675
17834076 25 17967812752080612201
18006028 8 17917710201599196361
20621476 8 18411980252524253437
20735858 18 15339119035475174052
21095086 128 17748825220173679619
21150785 3 15068622686193427438
21267235 1 18408887330051507316
21315763 28 18412825798467587033
220451 1 15574707019539592761
22224240 67 9871746892718559996
23035841 295 18131349726714051663
23521765 1 18342175570490831419
246663 6 18408324380213870655
28498 318 18342457019629257694
33532 11 18335416842482426050
33684 2 16988843878761841287
3545911 37 17966967227491217963
42788 4 18335136501772161613
4325135 7 18342455937487422671
5283156 175 17418096503125491818
59682541 35 10159690305167638551
59755656 520 17894905261261732475
67123 10 17530967994577341734
8209 1 18410573985156732391

> <PUBCHEM_SHAPE_MULTIPOLES>
317.53
28.23
0.96
0.68
12.6
0.17
0.01
-6.06
1.07
-0.94
0.05
0.03
-0.04
0.27

> <PUBCHEM_SHAPE_SELFOVERLAP>
585.056

> <PUBCHEM_SHAPE_VOLUME>
199.8

> <PUBCHEM_COORDINATE_TYPE>
2
5
10

$$$$
