61415
  -OEChem-11232108513D

 38 37  0     0  0  0  0  0  0999 V2000
   -1.2138   -0.2546   -0.0796 O   0  0  0  0  0  0  0  0  0  0  0  0
   -0.0351    1.7272   -0.0171 O   0  0  0  0  0  0  0  0  0  0  0  0
    3.6612   -0.6015   -0.0194 C   0  0  0  0  0  0  0  0  0  0  0  0
    2.4536    0.3402    0.0144 C   0  0  0  0  0  0  0  0  0  0  0  0
    4.9751    0.1786    0.0578 C   0  0  0  0  0  0  0  0  0  0  0  0
    1.1256   -0.4095   -0.0894 C   0  0  0  0  0  0  0  0  0  0  0  0
    6.1819   -0.7574   -0.0044 C   0  0  0  0  0  0  0  0  0  0  0  0
   -3.6026   -0.5132   -0.0524 C   0  0  0  0  0  0  0  0  0  0  0  0
   -4.9521    0.1985    0.0139 C   0  0  0  0  0  0  0  0  0  0  0  0
   -2.4446    0.4744   -0.0302 C   0  0  0  0  0  0  0  0  0  0  0  0
   -6.1078   -0.8015    0.0339 C   0  0  0  0  0  0  0  0  0  0  0  0
   -0.0788    0.5056   -0.0665 C   0  0  0  0  0  0  0  0  0  0  0  0
    7.4892    0.0111    0.1049 C   0  0  0  0  0  0  0  0  0  0  0  0
   -7.4518   -0.0979    0.1340 C   0  0  0  0  0  0  0  0  0  0  0  0
    3.6379   -1.1920   -0.9433 H   0  0  0  0  0  0  0  0  0  0  0  0
    3.6000   -1.3070    0.8180 H   0  0  0  0  0  0  0  0  0  0  0  0
    2.5284    1.0610   -0.8097 H   0  0  0  0  0  0  0  0  0  0  0  0
    2.4704    0.9258    0.9423 H   0  0  0  0  0  0  0  0  0  0  0  0
    5.0038    0.7558    0.9900 H   0  0  0  0  0  0  0  0  0  0  0  0
    5.0266    0.8975   -0.7690 H   0  0  0  0  0  0  0  0  0  0  0  0
    1.0378   -1.1070    0.7515 H   0  0  0  0  0  0  0  0  0  0  0  0
    1.0977   -0.9789   -1.0253 H   0  0  0  0  0  0  0  0  0  0  0  0
    6.1277   -1.4898    0.8094 H   0  0  0  0  0  0  0  0  0  0  0  0
    6.1705   -1.3177   -0.9465 H   0  0  0  0  0  0  0  0  0  0  0  0
   -3.4988   -1.2098    0.7889 H   0  0  0  0  0  0  0  0  0  0  0  0
   -3.5407   -1.1274   -0.9594 H   0  0  0  0  0  0  0  0  0  0  0  0
   -4.9931    0.8228    0.9150 H   0  0  0  0  0  0  0  0  0  0  0  0
   -5.0585    0.8682   -0.8481 H   0  0  0  0  0  0  0  0  0  0  0  0
   -2.5037    1.1437   -0.8964 H   0  0  0  0  0  0  0  0  0  0  0  0
   -2.4742    1.0698    0.8898 H   0  0  0  0  0  0  0  0  0  0  0  0
   -6.0870   -1.4125   -0.8760 H   0  0  0  0  0  0  0  0  0  0  0  0
   -5.9964   -1.4832    0.8852 H   0  0  0  0  0  0  0  0  0  0  0  0
    7.5462    0.5557    1.0528 H   0  0  0  0  0  0  0  0  0  0  0  0
    7.5898    0.7322   -0.7126 H   0  0  0  0  0  0  0  0  0  0  0  0
    8.3387   -0.6774    0.0573 H   0  0  0  0  0  0  0  0  0  0  0  0
   -7.5170    0.4951    1.0519 H   0  0  0  0  0  0  0  0  0  0  0  0
   -7.6092    0.5701   -0.7189 H   0  0  0  0  0  0  0  0  0  0  0  0
   -8.2639   -0.8316    0.1454 H   0  0  0  0  0  0  0  0  0  0  0  0
  1 10  1  0  0  0  0
  1 12  1  0  0  0  0
  2 12  2  0  0  0  0
  3  4  1  0  0  0  0
  3  5  1  0  0  0  0
  3 15  1  0  0  0  0
  3 16  1  0  0  0  0
  4  6  1  0  0  0  0
  4 17  1  0  0  0  0
  4 18  1  0  0  0  0
  5  7  1  0  0  0  0
  5 19  1  0  0  0  0
  5 20  1  0  0  0  0
  6 12  1  0  0  0  0
  6 21  1  0  0  0  0
  6 22  1  0  0  0  0
  7 13  1  0  0  0  0
  7 23  1  0  0  0  0
  7 24  1  0  0  0  0
  8  9  1  0  0  0  0
  8 10  1  0  0  0  0
  8 25  1  0  0  0  0
  8 26  1  0  0  0  0
  9 11  1  0  0  0  0
  9 27  1  0  0  0  0
  9 28  1  0  0  0  0
 10 29  1  0  0  0  0
 10 30  1  0  0  0  0
 11 14  1  0  0  0  0
 11 31  1  0  0  0  0
 11 32  1  0  0  0  0
 13 33  1  0  0  0  0
 13 34  1  0  0  0  0
 13 35  1  0  0  0  0
 14 36  1  0  0  0  0
 14 37  1  0  0  0  0
 14 38  1  0  0  0  0
M  END
> <PUBCHEM_COMPOUND_CID>
61415

> <PUBCHEM_CONFORMER_RMSD>
1

> <PUBCHEM_CONFORMER_DIVERSEORDER>
1
58
119
134
97
24
104
7
144
19
55
5
35
108
111
69
78
72
59
26
115
13
30
152
83
36
2
66
60
103
23
125
80
110
155
34
89
20
74
46
15
141
8
82
31
81
63
122
102
130
146
154
84
32
39
37
9
77
21
139
79
126
132
16
106
70
93
27
113
149
33
28
135
85
87
100
48
4
143
92
96
117
40
86
148
38
120
73
151
41
61
10
133
6
150
131
52
114
101
14
3
67
124
42
91
65
140
54
109
123
56
62
47
88
57
49
138
43
11
17
142
157
127
64
95
18
12
147
121
158
107
22
99
25
90
153
98
137
75
68
44
128
145
51
50
129
76
45
118
71
105
136
53
112
156
94
29
116

> <PUBCHEM_MMFF94_PARTIAL_CHARGES>
5
1 -0.43
10 0.28
12 0.66
2 -0.57
6 0.06

> <PUBCHEM_EFFECTIVE_ROTOR_COUNT>
10

> <PUBCHEM_PHARMACOPHORE_FEATURES>
4
1 13 hydrophobe
1 14 hydrophobe
1 2 acceptor
5 3 4 5 6 7 hydrophobe

> <PUBCHEM_HEAVY_ATOM_COUNT>
14

> <PUBCHEM_ATOM_DEF_STEREO_COUNT>
0

> <PUBCHEM_ATOM_UDEF_STEREO_COUNT>
0

> <PUBCHEM_BOND_DEF_STEREO_COUNT>
0

> <PUBCHEM_BOND_UDEF_STEREO_COUNT>
0

> <PUBCHEM_ISOTOPIC_ATOM_COUNT>
0

> <PUBCHEM_COMPONENT_COUNT>
1

> <PUBCHEM_CACTVS_TAUTO_COUNT>
1

> <PUBCHEM_CONFORMER_ID>
0000EFE700000001

> <PUBCHEM_MMFF94_ENERGY>
-0.5756

> <PUBCHEM_FEATURE_SELFOVERLAP>
20.297

> <PUBCHEM_SHAPE_FINGERPRINT>
10354089 29 13830131689761535722
10968037 39 18334294271190535767
11315181 36 18342461456789352065
12091667 2 17313104147080547253
12714333 28 11674877792665926131
13288520 33 18408885144677680893
13533116 47 13758083948452406278
13964095 4 17458340828326586527
14123256 10 17385723595101063522
1420 363 18413672405050974030
14251764 18 18202848750937291009
14251764 46 18409449189088256779
14729087 3 12319463165025812995
15048467 5 10231753388200254506
15716309 27 17917991676538762774
17834072 8 12396300361203948054
17834076 25 16877943836658244818
18006028 8 18344144795526378761
187816 3 17022623069904358032
20281389 69 11312056535202357138
20767249 213 10303810986295733903
21130983 4 12031785881439604642
21150785 3 15285359526414896938
21267235 1 18410579482709616020
22224240 67 16917343744976180670
23035841 295 18408884040117023691
23402539 116 18343577451726189039
23521765 1 18341894090834122530
246663 6 17917435311503520334
33532 11 18130788924123622054
33684 2 17676204667354797922
42788 4 18410855460128194292
4463277 17 18411418410134629452
59682541 35 17989202689631187018
8209 1 18040715870122540982

> <PUBCHEM_SHAPE_MULTIPOLES>
276.37
21.24
0.96
0.61
0.2
0.2
0
-4.2
-1.08
0.03
0.01
0
-0.01
0.03

> <PUBCHEM_SHAPE_SELFOVERLAP>
500.768

> <PUBCHEM_SHAPE_VOLUME>
177.3

> <PUBCHEM_COORDINATE_TYPE>
2
5
10

$$$$
