61417
  -OEChem-11232108423D

 28 28  0     0  0  0  0  0  0999 V2000
   -1.9055   -0.0864   -0.1087 O   0  0  0  0  0  0  0  0  0  0  0  0
    4.3322   -0.1215   -0.5967 O   0  0  0  0  0  0  0  0  0  0  0  0
   -3.7916    0.7032    0.9605 O   0  0  0  0  0  0  0  0  0  0  0  0
    0.3578    0.4801    0.3998 C   0  0  0  0  0  0  0  0  0  0  0  0
   -1.0823    0.6979    0.7606 C   0  0  0  0  0  0  0  0  0  0  0  0
    0.9624    1.3017   -0.5444 C   0  0  0  0  0  0  0  0  0  0  0  0
    1.0737   -0.5418    1.0132 C   0  0  0  0  0  0  0  0  0  0  0  0
    3.0262    0.0760   -0.2688 C   0  0  0  0  0  0  0  0  0  0  0  0
    2.3010    1.0990   -0.8799 C   0  0  0  0  0  0  0  0  0  0  0  0
    2.4125   -0.7445    0.6779 C   0  0  0  0  0  0  0  0  0  0  0  0
   -3.9717   -0.8673   -0.8864 C   0  0  0  0  0  0  0  0  0  0  0  0
   -3.2509    0.0142    0.1064 C   0  0  0  0  0  0  0  0  0  0  0  0
   -5.4784   -0.8253   -0.6996 C   0  0  0  0  0  0  0  0  0  0  0  0
    5.0145   -1.1851    0.0660 C   0  0  0  0  0  0  0  0  0  0  0  0
   -1.2605    0.4053    1.8031 H   0  0  0  0  0  0  0  0  0  0  0  0
   -1.3423    1.7591    0.6591 H   0  0  0  0  0  0  0  0  0  0  0  0
    0.4065    2.1001   -1.0280 H   0  0  0  0  0  0  0  0  0  0  0  0
    0.6037   -1.1874    1.7501 H   0  0  0  0  0  0  0  0  0  0  0  0
    2.7735    1.7408   -1.6185 H   0  0  0  0  0  0  0  0  0  0  0  0
    2.9162   -1.5572    1.1900 H   0  0  0  0  0  0  0  0  0  0  0  0
   -3.7216   -0.5275   -1.8970 H   0  0  0  0  0  0  0  0  0  0  0  0
   -3.6196   -1.8961   -0.7562 H   0  0  0  0  0  0  0  0  0  0  0  0
   -5.8625    0.1918   -0.8298 H   0  0  0  0  0  0  0  0  0  0  0  0
   -5.9714   -1.4735   -1.4306 H   0  0  0  0  0  0  0  0  0  0  0  0
   -5.7598   -1.1636    0.3032 H   0  0  0  0  0  0  0  0  0  0  0  0
    6.0409   -1.1978   -0.3151 H   0  0  0  0  0  0  0  0  0  0  0  0
    4.5724   -2.1580   -0.1740 H   0  0  0  0  0  0  0  0  0  0  0  0
    5.0765   -1.0123    1.1459 H   0  0  0  0  0  0  0  0  0  0  0  0
  1  5  1  0  0  0  0
  1 12  1  0  0  0  0
  2  8  1  0  0  0  0
  2 14  1  0  0  0  0
  3 12  2  0  0  0  0
  4  5  1  0  0  0  0
  4  6  2  0  0  0  0
  4  7  1  0  0  0  0
  5 15  1  0  0  0  0
  5 16  1  0  0  0  0
  6  9  1  0  0  0  0
  6 17  1  0  0  0  0
  7 10  2  0  0  0  0
  7 18  1  0  0  0  0
  8  9  2  0  0  0  0
  8 10  1  0  0  0  0
  9 19  1  0  0  0  0
 10 20  1  0  0  0  0
 11 12  1  0  0  0  0
 11 13  1  0  0  0  0
 11 21  1  0  0  0  0
 11 22  1  0  0  0  0
 13 23  1  0  0  0  0
 13 24  1  0  0  0  0
 13 25  1  0  0  0  0
 14 26  1  0  0  0  0
 14 27  1  0  0  0  0
 14 28  1  0  0  0  0
M  END
> <PUBCHEM_COMPOUND_CID>
61417

> <PUBCHEM_CONFORMER_RMSD>
0.6

> <PUBCHEM_CONFORMER_DIVERSEORDER>
1
25
12
24
27
20
28
21
6
36
44
30
2
29
19
35
26
31
9
13
42
22
4
14
39
8
23
43
5
32
34
41
3
10
11
7
37
38
33
18
17
40
15
16

> <PUBCHEM_MMFF94_PARTIAL_CHARGES>
17
1 -0.43
10 -0.15
11 0.06
12 0.66
14 0.28
17 0.15
18 0.15
19 0.15
2 -0.36
20 0.15
3 -0.57
4 -0.14
5 0.42
6 -0.15
7 -0.15
8 0.08
9 -0.15

> <PUBCHEM_EFFECTIVE_ROTOR_COUNT>
5

> <PUBCHEM_PHARMACOPHORE_FEATURES>
4
1 13 hydrophobe
1 2 acceptor
1 3 acceptor
6 4 6 7 8 9 10 rings

> <PUBCHEM_HEAVY_ATOM_COUNT>
14

> <PUBCHEM_ATOM_DEF_STEREO_COUNT>
0

> <PUBCHEM_ATOM_UDEF_STEREO_COUNT>
0

> <PUBCHEM_BOND_DEF_STEREO_COUNT>
0

> <PUBCHEM_BOND_UDEF_STEREO_COUNT>
0

> <PUBCHEM_ISOTOPIC_ATOM_COUNT>
0

> <PUBCHEM_COMPONENT_COUNT>
1

> <PUBCHEM_CACTVS_TAUTO_COUNT>
1

> <PUBCHEM_CONFORMER_ID>
0000EFE900000001

> <PUBCHEM_MMFF94_ENERGY>
33.8393

> <PUBCHEM_FEATURE_SELFOVERLAP>
20.297

> <PUBCHEM_SHAPE_FINGERPRINT>
100836 57 12685090363194382711
10465860 250 16845854568200120112
10498660 4 14201938109309353167
11046707 91 18060699494363454201
11401426 45 17894348895692888776
11471102 20 17749110006480283692
12236239 1 18412829083885200137
12251169 10 12823294615361214221
12670543 26 16877940482642448446
13690532 89 18410012126420572286
13760787 5 18114190734590792820
13862211 1 18114457869426297370
14252887 29 13830142684608755932
14576447 43 18335134306289791738
14911166 2 17603307055186642570
14993402 34 18260547826986434298
15242439 84 16515684446515131875
17834072 33 18201156645433930804
18186145 218 17313106375504215161
18915474 69 18340766056687418607
200 152 18335420162254262217
20279233 1 16008746914227252737
20645477 56 13695585542982060411
20645477 70 17095793331086733539
21119208 17 18113898277630496295
21256008 61 18408039624008778884
21637258 2 18130779024107615710
221357 26 17458614615143188717
22485316 2 17489590034665697774
23402539 116 18341894060785383677
23402655 69 17385436614192420831
23532345 12 18272939305857141777
29717793 49 18342457041177895501
3060560 45 17676485060137172842
42 15 16559033809342759239

> <PUBCHEM_SHAPE_MULTIPOLES>
270.51
10.6
1.18
1.02
6.09
0.09
-0.05
-4.1
2.79
-0.6
0.11
0.38
0.01
-0.87

> <PUBCHEM_SHAPE_SELFOVERLAP>
548.492

> <PUBCHEM_SHAPE_VOLUME>
158.7

> <PUBCHEM_COORDINATE_TYPE>
2
5
10

$$$$
