61434
  -OEChem-11232108403D

 51 51  0     0  0  0  0  0  0999 V2000
    3.6472   -1.1389    0.1845 O   0  0  0  0  0  0  0  0  0  0  0  0
    2.7583    0.9882   -0.2072 O   0  0  0  0  0  0  0  0  0  0  0  0
   -4.9402    0.3855   -0.1591 C   0  0  0  0  0  0  0  0  0  0  0  0
   -3.7518   -0.5613    0.0170 C   0  0  0  0  0  0  0  0  0  0  0  0
   -6.2691   -0.3517    0.0153 C   0  0  0  0  0  0  0  0  0  0  0  0
   -2.4225    0.1821   -0.1242 C   0  0  0  0  0  0  0  0  0  0  0  0
   -7.4575    0.6019   -0.1277 C   0  0  0  0  0  0  0  0  0  0  0  0
   -1.2342   -0.7586    0.0856 C   0  0  0  0  0  0  0  0  0  0  0  0
   -8.7843   -0.1316    0.0808 C   0  0  0  0  0  0  0  0  0  0  0  0
    0.0963   -0.0196   -0.0893 C   0  0  0  0  0  0  0  0  0  0  0  0
  -10.0085    0.7717   -0.0814 C   0  0  0  0  0  0  0  0  0  0  0  0
    1.3025   -0.9415    0.0869 C   0  0  0  0  0  0  0  0  0  0  0  0
  -11.3264    0.0646    0.1943 C   0  0  0  0  0  0  0  0  0  0  0  0
    2.6256   -0.2128   -0.0140 C   0  0  0  0  0  0  0  0  0  0  0  0
    4.9198   -0.5676    0.1115 C   0  0  0  0  0  0  0  0  0  0  0  0
    5.4910   -0.0768    1.2648 C   0  0  0  0  0  0  0  0  0  0  0  0
    5.5538   -0.5159   -1.1100 C   0  0  0  0  0  0  0  0  0  0  0  0
    7.4280    0.5609   -0.0306 C   0  0  0  0  0  0  0  0  0  0  0  0
    6.7614    0.4948    1.1928 C   0  0  0  0  0  0  0  0  0  0  0  0
    6.8242    0.0555   -1.1821 C   0  0  0  0  0  0  0  0  0  0  0  0
    8.7864    1.1711   -0.1078 C   0  0  0  0  0  0  0  0  0  0  0  0
   -4.9013    0.8449   -1.1543 H   0  0  0  0  0  0  0  0  0  0  0  0
   -4.8731    1.1977    0.5750 H   0  0  0  0  0  0  0  0  0  0  0  0
   -3.8066   -1.3638   -0.7285 H   0  0  0  0  0  0  0  0  0  0  0  0
   -3.8033   -1.0340    1.0054 H   0  0  0  0  0  0  0  0  0  0  0  0
   -6.3467   -1.1521   -0.7304 H   0  0  0  0  0  0  0  0  0  0  0  0
   -6.2977   -0.8262    1.0037 H   0  0  0  0  0  0  0  0  0  0  0  0
   -2.3762    0.9980    0.6073 H   0  0  0  0  0  0  0  0  0  0  0  0
   -2.3619    0.6369   -1.1204 H   0  0  0  0  0  0  0  0  0  0  0  0
   -7.3711    1.4142    0.6040 H   0  0  0  0  0  0  0  0  0  0  0  0
   -7.4440    1.0602   -1.1238 H   0  0  0  0  0  0  0  0  0  0  0  0
   -1.2820   -1.1967    1.0898 H   0  0  0  0  0  0  0  0  0  0  0  0
   -1.2886   -1.5860   -0.6322 H   0  0  0  0  0  0  0  0  0  0  0  0
   -8.8574   -0.9625   -0.6319 H   0  0  0  0  0  0  0  0  0  0  0  0
   -8.7960   -0.5743    1.0846 H   0  0  0  0  0  0  0  0  0  0  0  0
    0.1351    0.4413   -1.0844 H   0  0  0  0  0  0  0  0  0  0  0  0
    0.1541    0.8015    0.6363 H   0  0  0  0  0  0  0  0  0  0  0  0
   -9.9206    1.6273    0.5989 H   0  0  0  0  0  0  0  0  0  0  0  0
  -10.0280    1.1769   -1.1001 H   0  0  0  0  0  0  0  0  0  0  0  0
    1.2558   -1.4172    1.0732 H   0  0  0  0  0  0  0  0  0  0  0  0
    1.2832   -1.7205   -0.6836 H   0  0  0  0  0  0  0  0  0  0  0  0
  -12.1643    0.7560    0.0623 H   0  0  0  0  0  0  0  0  0  0  0  0
  -11.4673   -0.7777   -0.4903 H   0  0  0  0  0  0  0  0  0  0  0  0
  -11.3573   -0.3174    1.2197 H   0  0  0  0  0  0  0  0  0  0  0  0
    4.9726   -0.1294    2.2170 H   0  0  0  0  0  0  0  0  0  0  0  0
    5.0843   -0.9102   -2.0058 H   0  0  0  0  0  0  0  0  0  0  0  0
    7.2220    0.8833    2.0973 H   0  0  0  0  0  0  0  0  0  0  0  0
    7.3342    0.0993   -2.1408 H   0  0  0  0  0  0  0  0  0  0  0  0
    8.9545    1.6390   -1.0837 H   0  0  0  0  0  0  0  0  0  0  0  0
    8.9117    1.9538    0.6482 H   0  0  0  0  0  0  0  0  0  0  0  0
    9.5518    0.4050    0.0506 H   0  0  0  0  0  0  0  0  0  0  0  0
  1 14  1  0  0  0  0
  1 15  1  0  0  0  0
  2 14  2  0  0  0  0
  3  4  1  0  0  0  0
  3  5  1  0  0  0  0
  3 22  1  0  0  0  0
  3 23  1  0  0  0  0
  4  6  1  0  0  0  0
  4 24  1  0  0  0  0
  4 25  1  0  0  0  0
  5  7  1  0  0  0  0
  5 26  1  0  0  0  0
  5 27  1  0  0  0  0
  6  8  1  0  0  0  0
  6 28  1  0  0  0  0
  6 29  1  0  0  0  0
  7  9  1  0  0  0  0
  7 30  1  0  0  0  0
  7 31  1  0  0  0  0
  8 10  1  0  0  0  0
  8 32  1  0  0  0  0
  8 33  1  0  0  0  0
  9 11  1  0  0  0  0
  9 34  1  0  0  0  0
  9 35  1  0  0  0  0
 10 12  1  0  0  0  0
 10 36  1  0  0  0  0
 10 37  1  0  0  0  0
 11 13  1  0  0  0  0
 11 38  1  0  0  0  0
 11 39  1  0  0  0  0
 12 14  1  0  0  0  0
 12 40  1  0  0  0  0
 12 41  1  0  0  0  0
 13 42  1  0  0  0  0
 13 43  1  0  0  0  0
 13 44  1  0  0  0  0
 15 16  2  0  0  0  0
 15 17  1  0  0  0  0
 16 19  1  0  0  0  0
 16 45  1  0  0  0  0
 17 20  2  0  0  0  0
 17 46  1  0  0  0  0
 18 19  2  0  0  0  0
 18 20  1  0  0  0  0
 18 21  1  0  0  0  0
 19 47  1  0  0  0  0
 20 48  1  0  0  0  0
 21 49  1  0  0  0  0
 21 50  1  0  0  0  0
 21 51  1  0  0  0  0
M  END
> <PUBCHEM_COMPOUND_CID>
61434

> <PUBCHEM_CONFORMER_RMSD>
1.2

> <PUBCHEM_CONFORMER_DIVERSEORDER>
1
88
2
97
86
105
36
4
62
72
63
70
107
17
9
100
15
95
79
53
38
104
54
58
21
74
68
106
49
71
94
99
10
44
87
75
25
8
22
65
48
40
27
37
41
64
23
52
81
47
103
31
76
43
20
11
14
51
66
33
24
7
91
93
84
98
73
29
45
102
55
96
30
34
80
39
56
50
85
92
57
61
42
46
32
83
5
16
77
67
101
18
89
59
3
82
35
69
6
60
28
13
108
78
90
26
12
19

> <PUBCHEM_MMFF94_PARTIAL_CHARGES>
15
1 -0.23
12 0.06
14 0.66
15 0.08
16 -0.15
17 -0.15
18 -0.14
19 -0.15
2 -0.57
20 -0.15
21 0.14
45 0.15
46 0.15
47 0.15
48 0.15

> <PUBCHEM_EFFECTIVE_ROTOR_COUNT>
12

> <PUBCHEM_PHARMACOPHORE_FEATURES>
3
1 13 hydrophobe
1 2 acceptor
6 15 16 17 18 19 20 rings

> <PUBCHEM_HEAVY_ATOM_COUNT>
21

> <PUBCHEM_ATOM_DEF_STEREO_COUNT>
0

> <PUBCHEM_ATOM_UDEF_STEREO_COUNT>
0

> <PUBCHEM_BOND_DEF_STEREO_COUNT>
0

> <PUBCHEM_BOND_UDEF_STEREO_COUNT>
0

> <PUBCHEM_ISOTOPIC_ATOM_COUNT>
0

> <PUBCHEM_COMPONENT_COUNT>
1

> <PUBCHEM_CACTVS_TAUTO_COUNT>
1

> <PUBCHEM_CONFORMER_ID>
0000EFFA00000001

> <PUBCHEM_MMFF94_ENERGY>
26.69

> <PUBCHEM_FEATURE_SELFOVERLAP>
15.223

> <PUBCHEM_SHAPE_FINGERPRINT>
106641 1 16732702757302352287
11211813 74 16773508971711249384
11315181 36 17918277555006945419
11638347 137 13479129082056560672
12522641 33 16271930394450763439
13885169 127 11819268950261821263
14150022 121 17458621165538579949
14251764 18 17748826310963257053
14251764 46 17822010909110131563
14428016 248 18202288005019861777
15510794 2 18343587343110406767
155225 1 18410575115656719528
16120349 18 16226051119132665078
1754911 235 17203604883650768925
21095086 128 12103848955676350097
21150785 3 17418094326009511548
21362267 2 18188478186078036277
21362267 313 17604983720625731665
21792934 111 13118283693763136895
22224240 67 16153427255174008307
232437 2 18113899347077625899
23521765 1 18342175562307124191
23581129 1 18409449184756236295
246663 6 10375870784047465111
249057 3 18342455972163477173
28498 318 11312059841757021033
33684 2 9079116661990585101
4325135 7 13542466466364588032
5283156 175 13551189983034508015
5758199 1 18410012118173802187
59520647 119 15195278759824575677
59521099 67 13110958748185467986
59682541 35 17458067075706511113
67123 10 18272932726684220751
8209 1 18059856164887418023
9663363 56 10952048945194611318

> <PUBCHEM_SHAPE_MULTIPOLES>
420.43
38.77
0.96
0.89
75.15
0.02
-0.03
9.88
0.4
-0.7
0.01
-1.63
0.01
0.34

> <PUBCHEM_SHAPE_SELFOVERLAP>
821.572

> <PUBCHEM_SHAPE_VOLUME>
253.4

> <PUBCHEM_COORDINATE_TYPE>
2
5
10

$$$$
