61435
  -OEChem-11232109413D

 52 51  0     1  0  0  0  0  0999 V2000
    0.6252    0.0766   -0.2015 O   0  0  0  0  0  0  0  0  0  0  0  0
   -0.6363   -1.6579    0.6475 O   0  0  0  0  0  0  0  0  0  0  0  0
    1.8229   -0.6863    0.0279 C   0  0  1  0  0  0  0  0  0  0  0  0
    3.0076    0.1756   -0.4717 C   0  0  0  0  0  0  0  0  0  0  0  0
   -4.2188    0.6751   -0.2461 C   0  0  0  0  0  0  0  0  0  0  0  0
   -5.5658    0.0565    0.1335 C   0  0  0  0  0  0  0  0  0  0  0  0
   -3.0555   -0.2327    0.1655 C   0  0  0  0  0  0  0  0  0  0  0  0
   -6.7273    0.9765   -0.2465 C   0  0  0  0  0  0  0  0  0  0  0  0
   -1.6938    0.3722   -0.1760 C   0  0  0  0  0  0  0  0  0  0  0  0
    4.3891   -0.4714   -0.3256 C   0  0  0  0  0  0  0  0  0  0  0  0
    1.8921   -0.8943    1.5459 C   0  0  0  0  0  0  0  0  0  0  0  0
   -8.0708    0.3737    0.1627 C   0  0  0  0  0  0  0  0  0  0  0  0
   -0.5351   -0.5408    0.1591 C   0  0  0  0  0  0  0  0  0  0  0  0
    1.6976   -1.9581   -0.7852 C   0  0  0  0  0  0  0  0  0  0  0  0
    5.4743    0.4696   -0.7710 C   0  0  0  0  0  0  0  0  0  0  0  0
   -9.2255    1.3003   -0.1830 C   0  0  0  0  0  0  0  0  0  0  0  0
    6.1349    1.3730   -0.0224 C   0  0  0  0  0  0  0  0  0  0  0  0
    1.6421   -3.2153   -0.3286 C   0  0  0  0  0  0  0  0  0  0  0  0
    7.2139    2.2880   -0.5287 C   0  0  0  0  0  0  0  0  0  0  0  0
    5.8293    1.5198    1.4442 C   0  0  0  0  0  0  0  0  0  0  0  0
    2.9869    1.1365    0.0620 H   0  0  0  0  0  0  0  0  0  0  0  0
    2.8393    0.4422   -1.5254 H   0  0  0  0  0  0  0  0  0  0  0  0
   -4.1840    0.8496   -1.3282 H   0  0  0  0  0  0  0  0  0  0  0  0
   -4.1102    1.6505    0.2435 H   0  0  0  0  0  0  0  0  0  0  0  0
   -5.6819   -0.9110   -0.3699 H   0  0  0  0  0  0  0  0  0  0  0  0
   -5.5890   -0.1357    1.2132 H   0  0  0  0  0  0  0  0  0  0  0  0
   -3.1036   -0.4295    1.2440 H   0  0  0  0  0  0  0  0  0  0  0  0
   -3.1591   -1.2048   -0.3330 H   0  0  0  0  0  0  0  0  0  0  0  0
   -6.5987    1.9499    0.2424 H   0  0  0  0  0  0  0  0  0  0  0  0
   -6.7172    1.1548   -1.3286 H   0  0  0  0  0  0  0  0  0  0  0  0
   -1.5609    1.3083    0.3780 H   0  0  0  0  0  0  0  0  0  0  0  0
   -1.6513    0.5876   -1.2500 H   0  0  0  0  0  0  0  0  0  0  0  0
    4.4500   -1.3712   -0.9496 H   0  0  0  0  0  0  0  0  0  0  0  0
    4.5758   -0.8129    0.6958 H   0  0  0  0  0  0  0  0  0  0  0  0
    1.8458    0.0730    2.0621 H   0  0  0  0  0  0  0  0  0  0  0  0
    1.1029   -1.5046    1.9892 H   0  0  0  0  0  0  0  0  0  0  0  0
    2.8292   -1.3776    1.8416 H   0  0  0  0  0  0  0  0  0  0  0  0
   -8.2164   -0.5884   -0.3421 H   0  0  0  0  0  0  0  0  0  0  0  0
   -8.0790    0.1787    1.2415 H   0  0  0  0  0  0  0  0  0  0  0  0
    1.6274   -1.8235   -1.8640 H   0  0  0  0  0  0  0  0  0  0  0  0
    5.7264    0.4075   -1.8286 H   0  0  0  0  0  0  0  0  0  0  0  0
  -10.1765    0.8491    0.1170 H   0  0  0  0  0  0  0  0  0  0  0  0
   -9.1270    2.2601    0.3340 H   0  0  0  0  0  0  0  0  0  0  0  0
   -9.2653    1.4923   -1.2600 H   0  0  0  0  0  0  0  0  0  0  0  0
    1.7007   -3.4575    0.7254 H   0  0  0  0  0  0  0  0  0  0  0  0
    1.5411   -4.0414   -1.0248 H   0  0  0  0  0  0  0  0  0  0  0  0
    7.4103    2.1287   -1.5941 H   0  0  0  0  0  0  0  0  0  0  0  0
    6.9213    3.3344   -0.3952 H   0  0  0  0  0  0  0  0  0  0  0  0
    8.1484    2.1128    0.0138 H   0  0  0  0  0  0  0  0  0  0  0  0
    6.6786    1.1683    2.0394 H   0  0  0  0  0  0  0  0  0  0  0  0
    4.9390    0.9842    1.7801 H   0  0  0  0  0  0  0  0  0  0  0  0
    5.6610    2.5759    1.6835 H   0  0  0  0  0  0  0  0  0  0  0  0
  1  3  1  0  0  0  0
  1 13  1  0  0  0  0
  2 13  2  0  0  0  0
  3  4  1  0  0  0  0
  3 11  1  0  0  0  0
  3 14  1  0  0  0  0
  4 10  1  0  0  0  0
  4 21  1  0  0  0  0
  4 22  1  0  0  0  0
  5  6  1  0  0  0  0
  5  7  1  0  0  0  0
  5 23  1  0  0  0  0
  5 24  1  0  0  0  0
  6  8  1  0  0  0  0
  6 25  1  0  0  0  0
  6 26  1  0  0  0  0
  7  9  1  0  0  0  0
  7 27  1  0  0  0  0
  7 28  1  0  0  0  0
  8 12  1  0  0  0  0
  8 29  1  0  0  0  0
  8 30  1  0  0  0  0
  9 13  1  0  0  0  0
  9 31  1  0  0  0  0
  9 32  1  0  0  0  0
 10 15  1  0  0  0  0
 10 33  1  0  0  0  0
 10 34  1  0  0  0  0
 11 35  1  0  0  0  0
 11 36  1  0  0  0  0
 11 37  1  0  0  0  0
 12 16  1  0  0  0  0
 12 38  1  0  0  0  0
 12 39  1  0  0  0  0
 14 18  2  0  0  0  0
 14 40  1  0  0  0  0
 15 17  2  0  0  0  0
 15 41  1  0  0  0  0
 16 42  1  0  0  0  0
 16 43  1  0  0  0  0
 16 44  1  0  0  0  0
 17 19  1  0  0  0  0
 17 20  1  0  0  0  0
 18 45  1  0  0  0  0
 18 46  1  0  0  0  0
 19 47  1  0  0  0  0
 19 48  1  0  0  0  0
 19 49  1  0  0  0  0
 20 50  1  0  0  0  0
 20 51  1  0  0  0  0
 20 52  1  0  0  0  0
M  END
> <PUBCHEM_COMPOUND_CID>
61435

> <PUBCHEM_CONFORMER_RMSD>
1.2

> <PUBCHEM_CONFORMER_DIVERSEORDER>
1
204
104
173
120
141
149
5
191
18
124
186
47
137
38
34
136
103
121
208
102
159
213
56
129
59
29
220
42
60
2
96
119
171
62
201
155
16
7
203
74
177
32
172
139
25
176
88
202
142
4
223
134
151
123
199
197
113
14
52
111
194
9
81
33
192
222
154
66
8
30
105
150
130
161
61
152
63
145
184
22
211
109
89
84
65
75
224
117
156
13
169
115
40
178
10
128
27
114
110
90
43
86
170
97
67
210
70
135
26
200
179
112
174
140
44
125
6
20
58
188
36
226
55
37
143
212
190
93
11
162
71
80
214
17
122
221
127
185
167
98
12
95
48
175
165
116
146
99
19
209
53
153
182
68
83
216
148
23
132
118
157
21
181
107
195
73
87
147
49
41
189
218
180
138
198
28
133
108
206
78
82
45
225
54
196
205
57
193
64
46
76
101
160
92
91
100
217
77
94
166
168
51
3
31
215
35
50
79
158
219
72
207
15
85
183
164
69
106
163
131
39
144
24
126
187

> <PUBCHEM_MMFF94_PARTIAL_CHARGES>
16
1 -0.43
10 0.14
13 0.66
14 -0.29
15 -0.29
17 -0.28
18 -0.3
19 0.14
2 -0.57
20 0.14
3 0.42
40 0.15
41 0.15
45 0.15
46 0.15
9 0.06

> <PUBCHEM_EFFECTIVE_ROTOR_COUNT>
12

> <PUBCHEM_PHARMACOPHORE_FEATURES>
6
1 16 hydrophobe
1 18 hydrophobe
1 2 acceptor
3 17 19 20 hydrophobe
3 5 7 9 hydrophobe
3 6 8 12 hydrophobe

> <PUBCHEM_HEAVY_ATOM_COUNT>
20

> <PUBCHEM_ATOM_DEF_STEREO_COUNT>
0

> <PUBCHEM_ATOM_UDEF_STEREO_COUNT>
1

> <PUBCHEM_BOND_DEF_STEREO_COUNT>
0

> <PUBCHEM_BOND_UDEF_STEREO_COUNT>
0

> <PUBCHEM_ISOTOPIC_ATOM_COUNT>
0

> <PUBCHEM_COMPONENT_COUNT>
1

> <PUBCHEM_CACTVS_TAUTO_COUNT>
1

> <PUBCHEM_CONFORMER_ID>
0000EFFB00000001

> <PUBCHEM_MMFF94_ENERGY>
26.0033

> <PUBCHEM_FEATURE_SELFOVERLAP>
30.462

> <PUBCHEM_SHAPE_FINGERPRINT>
10 15 17603304872947935540
10411042 1 17834960772664567638
11315181 36 18273218595955956857
11638347 137 16008743589632740432
12592606 108 9655573007415541557
12730499 353 18412548686565881866
13073987 5 17023177159967956189
14251764 18 16805322206604665713
14461889 52 18040723584443253875
155225 1 18409730681292965620
17980427 23 17749673016415970526
18335252 98 18410580592009086427
195137 175 17632303342203055401
20157964 124 18410576163132698894
20281389 69 18040714749157442237
20397935 70 14490465358053592160
20554085 129 18130775777260078978
20735858 18 14851604384275775217
21033648 29 18269826683703564352
21150785 3 17489869332864304589
220451 1 17560794404467069175
22224240 67 18040434399947316827
246663 6 11815897864648406845
300161 21 18333731308674095811
34797466 226 17917998252022981956
4073 2 18335425669146706107
4340502 62 16370443345431416722
5758199 1 18408887334963250417
59682541 35 18040722489574642105
59682541 52 15554732174818532340
6025842 7 18272090435557101303
6438161 24 10447928364815726636

> <PUBCHEM_SHAPE_MULTIPOLES>
399.85
23.86
2.2
0.97
40.93
1.3
0.29
-20.02
-1.42
-3.34
-0.19
-1.16
-0.01
0.41

> <PUBCHEM_SHAPE_SELFOVERLAP>
757.129

> <PUBCHEM_SHAPE_VOLUME>
247.1

> <PUBCHEM_COORDINATE_TYPE>
2
5
10

$$$$
