61446
  -OEChem-11232109453D

 39 39  0     0  0  0  0  0  0999 V2000
   -2.0887   -0.6872   -0.5276 O   0  0  0  0  0  0  0  0  0  0  0  0
   -1.8996    0.6281    1.3575 O   0  0  0  0  0  0  0  0  0  0  0  0
   -1.3281   -1.7148    0.1113 C   0  0  0  0  0  0  0  0  0  0  0  0
    0.0712   -1.1530    0.4355 C   0  0  0  0  0  0  0  0  0  0  0  0
    0.8349   -0.6120   -0.7815 C   0  0  0  0  0  0  0  0  0  0  0  0
   -1.1975   -2.8840   -0.8705 C   0  0  0  0  0  0  0  0  0  0  0  0
   -2.0804   -2.1669    1.3647 C   0  0  0  0  0  0  0  0  0  0  0  0
    2.1823   -0.0588   -0.3866 C   0  0  0  0  0  0  0  0  0  0  0  0
   -3.1288    1.4288   -0.5856 C   0  0  0  0  0  0  0  0  0  0  0  0
   -2.3014    0.4398    0.2166 C   0  0  0  0  0  0  0  0  0  0  0  0
    2.2922    1.2780   -0.0367 C   0  0  0  0  0  0  0  0  0  0  0  0
    3.2864   -0.8970   -0.3803 C   0  0  0  0  0  0  0  0  0  0  0  0
   -4.6119    1.1726   -0.3455 C   0  0  0  0  0  0  0  0  0  0  0  0
   -2.7566    2.8644   -0.2244 C   0  0  0  0  0  0  0  0  0  0  0  0
    3.5374    1.7896    0.3285 C   0  0  0  0  0  0  0  0  0  0  0  0
    4.5315   -0.3854   -0.0150 C   0  0  0  0  0  0  0  0  0  0  0  0
    4.6571    0.9579    0.3394 C   0  0  0  0  0  0  0  0  0  0  0  0
    0.6648   -1.9652    0.8807 H   0  0  0  0  0  0  0  0  0  0  0  0
    0.0555   -0.3859    1.2145 H   0  0  0  0  0  0  0  0  0  0  0  0
    0.2578    0.1738   -1.2840 H   0  0  0  0  0  0  0  0  0  0  0  0
    0.9888   -1.3970   -1.5307 H   0  0  0  0  0  0  0  0  0  0  0  0
   -0.5184   -3.6574   -0.4973 H   0  0  0  0  0  0  0  0  0  0  0  0
   -0.8579   -2.5545   -1.8576 H   0  0  0  0  0  0  0  0  0  0  0  0
   -2.1772   -3.3468   -1.0403 H   0  0  0  0  0  0  0  0  0  0  0  0
   -3.1498   -2.2923    1.1593 H   0  0  0  0  0  0  0  0  0  0  0  0
   -1.9908   -1.4801    2.2101 H   0  0  0  0  0  0  0  0  0  0  0  0
   -1.6892   -3.1276    1.7203 H   0  0  0  0  0  0  0  0  0  0  0  0
   -2.8986    1.2854   -1.6487 H   0  0  0  0  0  0  0  0  0  0  0  0
    1.4253    1.9327   -0.0399 H   0  0  0  0  0  0  0  0  0  0  0  0
    3.1984   -1.9450   -0.6524 H   0  0  0  0  0  0  0  0  0  0  0  0
   -4.8802    0.1482   -0.6261 H   0  0  0  0  0  0  0  0  0  0  0  0
   -5.2283    1.8583   -0.9358 H   0  0  0  0  0  0  0  0  0  0  0  0
   -4.8716    1.3011    0.7112 H   0  0  0  0  0  0  0  0  0  0  0  0
   -2.9838    3.0863    0.8242 H   0  0  0  0  0  0  0  0  0  0  0  0
   -1.6848    3.0356   -0.3729 H   0  0  0  0  0  0  0  0  0  0  0  0
   -3.3045    3.5776   -0.8489 H   0  0  0  0  0  0  0  0  0  0  0  0
    3.6350    2.8353    0.6051 H   0  0  0  0  0  0  0  0  0  0  0  0
    5.4033   -1.0331   -0.0058 H   0  0  0  0  0  0  0  0  0  0  0  0
    5.6266    1.3560    0.6242 H   0  0  0  0  0  0  0  0  0  0  0  0
  1  3  1  0  0  0  0
  1 10  1  0  0  0  0
  2 10  2  0  0  0  0
  3  4  1  0  0  0  0
  3  6  1  0  0  0  0
  3  7  1  0  0  0  0
  4  5  1  0  0  0  0
  4 18  1  0  0  0  0
  4 19  1  0  0  0  0
  5  8  1  0  0  0  0
  5 20  1  0  0  0  0
  5 21  1  0  0  0  0
  6 22  1  0  0  0  0
  6 23  1  0  0  0  0
  6 24  1  0  0  0  0
  7 25  1  0  0  0  0
  7 26  1  0  0  0  0
  7 27  1  0  0  0  0
  8 11  2  0  0  0  0
  8 12  1  0  0  0  0
  9 10  1  0  0  0  0
  9 13  1  0  0  0  0
  9 14  1  0  0  0  0
  9 28  1  0  0  0  0
 11 15  1  0  0  0  0
 11 29  1  0  0  0  0
 12 16  2  0  0  0  0
 12 30  1  0  0  0  0
 13 31  1  0  0  0  0
 13 32  1  0  0  0  0
 13 33  1  0  0  0  0
 14 34  1  0  0  0  0
 14 35  1  0  0  0  0
 14 36  1  0  0  0  0
 15 17  2  0  0  0  0
 15 37  1  0  0  0  0
 16 17  1  0  0  0  0
 16 38  1  0  0  0  0
 17 39  1  0  0  0  0
M  END
> <PUBCHEM_COMPOUND_CID>
61446

> <PUBCHEM_CONFORMER_RMSD>
0.8

> <PUBCHEM_CONFORMER_DIVERSEORDER>
1
27
2
20
28
21
23
22
32
25
10
26
15
31
30
6
16
5
8
19
17
7
24
29
33
14
4
18
11
12
9
13
3

> <PUBCHEM_MMFF94_PARTIAL_CHARGES>
17
1 -0.43
10 0.66
11 -0.15
12 -0.15
15 -0.15
16 -0.15
17 -0.15
2 -0.57
29 0.15
3 0.28
30 0.15
37 0.15
38 0.15
39 0.15
5 0.14
8 -0.14
9 0.06

> <PUBCHEM_EFFECTIVE_ROTOR_COUNT>
6

> <PUBCHEM_PHARMACOPHORE_FEATURES>
4
1 2 acceptor
3 3 6 7 hydrophobe
3 9 13 14 hydrophobe
6 8 11 12 15 16 17 rings

> <PUBCHEM_HEAVY_ATOM_COUNT>
17

> <PUBCHEM_ATOM_DEF_STEREO_COUNT>
0

> <PUBCHEM_ATOM_UDEF_STEREO_COUNT>
0

> <PUBCHEM_BOND_DEF_STEREO_COUNT>
0

> <PUBCHEM_BOND_UDEF_STEREO_COUNT>
0

> <PUBCHEM_ISOTOPIC_ATOM_COUNT>
0

> <PUBCHEM_COMPONENT_COUNT>
1

> <PUBCHEM_CACTVS_TAUTO_COUNT>
1

> <PUBCHEM_CONFORMER_ID>
0000F00600000001

> <PUBCHEM_MMFF94_ENERGY>
42.5644

> <PUBCHEM_FEATURE_SELFOVERLAP>
20.297

> <PUBCHEM_SHAPE_FINGERPRINT>
10608611 8 18340768247241993616
10646746 165 18409167718944525180
11045515 52 17834098020570407183
11370993 70 18340200804388829396
12077114 3 18411421730370949254
122479 349 18408605855053359895
12403814 3 18198070368235512315
12500047 106 18411696595593431942
12507560 40 18338520845559189514
12769317 202 17978213977435034429
13296909 8 18335702809619810390
14123255 52 18336824187068514893
14178342 30 17822010960376030578
15375462 189 12179852710015826020
1741750 31 18410575063288566803
18186145 218 18130519530509456878
192875 21 17703786973257977568
20510252 161 18339365282973524467
20645477 56 18412548725325666838
20645477 70 17417820487595748510
21065199 12 18336549429848066282
21069387 34 16773244963854672342
212916 134 18269534101461235514
21524375 3 18263364703063045767
22182937 141 18340496590418272633
2306618 200 18130232669469878987
23227448 37 18340766039444213501
23402539 116 18342730858349483559
23557571 272 18128543841079144126
23559900 14 18202282481871032978
27216 239 18335706069716181361
351380 180 18411132502762348917
4028521 119 18412823560288498485
474 4 18199472052281753209
5104073 3 18335697287035679848
532947 4 17983864380538284238
69090 78 18412823581847425751
7832392 63 18335135401943879794
84936 182 18051688837470473905
9709674 26 18342178877557919734

> <PUBCHEM_SHAPE_MULTIPOLES>
338.11
8.72
2.85
0.97
5.1
0.31
-0.17
-4.72
0.01
-2.43
0.11
-0.43
0.33
0.74

> <PUBCHEM_SHAPE_SELFOVERLAP>
683.007

> <PUBCHEM_SHAPE_VOLUME>
198.3

> <PUBCHEM_COORDINATE_TYPE>
2
5
10

$$$$
