61447
  -OEChem-11232109003D

 33 33  0     1  0  0  0  0  0999 V2000
    0.7634    1.1377   -0.2411 O   0  0  0  0  0  0  0  0  0  0  0  0
    1.0312   -0.5964    1.2568 O   0  0  0  0  0  0  0  0  0  0  0  0
   -0.5522    1.3772    0.2692 C   0  0  1  0  0  0  0  0  0  0  0  0
   -1.1396    2.6161   -0.4216 C   0  0  0  0  0  0  0  0  0  0  0  0
   -1.3674    0.1211    0.0669 C   0  0  0  0  0  0  0  0  0  0  0  0
   -0.3236    3.8789   -0.1883 C   0  0  0  0  0  0  0  0  0  0  0  0
    2.8065   -0.0069   -0.2976 C   0  0  0  0  0  0  0  0  0  0  0  0
   -2.3702   -0.1891    0.9709 C   0  0  0  0  0  0  0  0  0  0  0  0
   -1.0966   -0.6955   -1.0188 C   0  0  0  0  0  0  0  0  0  0  0  0
    1.4459    0.1126    0.3504 C   0  0  0  0  0  0  0  0  0  0  0  0
    3.6426   -1.1195    0.3298 C   0  0  0  0  0  0  0  0  0  0  0  0
   -3.1229   -1.3484    0.7841 C   0  0  0  0  0  0  0  0  0  0  0  0
   -1.8495   -1.8548   -1.2055 C   0  0  0  0  0  0  0  0  0  0  0  0
    4.9952   -1.2517   -0.3510 C   0  0  0  0  0  0  0  0  0  0  0  0
   -2.8627   -2.1812   -0.3040 C   0  0  0  0  0  0  0  0  0  0  0  0
   -0.4585    1.5897    1.3434 H   0  0  0  0  0  0  0  0  0  0  0  0
   -1.1945    2.4437   -1.5041 H   0  0  0  0  0  0  0  0  0  0  0  0
   -2.1655    2.7843   -0.0724 H   0  0  0  0  0  0  0  0  0  0  0  0
    2.6579   -0.2113   -1.3639 H   0  0  0  0  0  0  0  0  0  0  0  0
    3.3249    0.9520   -0.1863 H   0  0  0  0  0  0  0  0  0  0  0  0
   -0.2462    4.1013    0.8806 H   0  0  0  0  0  0  0  0  0  0  0  0
   -0.8005    4.7330   -0.6794 H   0  0  0  0  0  0  0  0  0  0  0  0
    0.6881    3.7796   -0.5936 H   0  0  0  0  0  0  0  0  0  0  0  0
    3.7910   -0.9187    1.3975 H   0  0  0  0  0  0  0  0  0  0  0  0
    3.1084   -2.0746    0.2589 H   0  0  0  0  0  0  0  0  0  0  0  0
   -2.5810    0.4545    1.8200 H   0  0  0  0  0  0  0  0  0  0  0  0
   -0.3357   -0.4538   -1.7551 H   0  0  0  0  0  0  0  0  0  0  0  0
   -3.9124   -1.6023    1.4855 H   0  0  0  0  0  0  0  0  0  0  0  0
   -1.6518   -2.4999   -2.0566 H   0  0  0  0  0  0  0  0  0  0  0  0
    5.5773   -2.0531    0.1147 H   0  0  0  0  0  0  0  0  0  0  0  0
    4.8782   -1.4899   -1.4130 H   0  0  0  0  0  0  0  0  0  0  0  0
    5.5685   -0.3229   -0.2678 H   0  0  0  0  0  0  0  0  0  0  0  0
   -3.4500   -3.0830   -0.4504 H   0  0  0  0  0  0  0  0  0  0  0  0
  1  3  1  0  0  0  0
  1 10  1  0  0  0  0
  2 10  2  0  0  0  0
  3  4  1  0  0  0  0
  3  5  1  0  0  0  0
  3 16  1  0  0  0  0
  4  6  1  0  0  0  0
  4 17  1  0  0  0  0
  4 18  1  0  0  0  0
  5  8  2  0  0  0  0
  5  9  1  0  0  0  0
  6 21  1  0  0  0  0
  6 22  1  0  0  0  0
  6 23  1  0  0  0  0
  7 10  1  0  0  0  0
  7 11  1  0  0  0  0
  7 19  1  0  0  0  0
  7 20  1  0  0  0  0
  8 12  1  0  0  0  0
  8 26  1  0  0  0  0
  9 13  2  0  0  0  0
  9 27  1  0  0  0  0
 11 14  1  0  0  0  0
 11 24  1  0  0  0  0
 11 25  1  0  0  0  0
 12 15  2  0  0  0  0
 12 28  1  0  0  0  0
 13 15  1  0  0  0  0
 13 29  1  0  0  0  0
 14 30  1  0  0  0  0
 14 31  1  0  0  0  0
 14 32  1  0  0  0  0
 15 33  1  0  0  0  0
M  END
> <PUBCHEM_COMPOUND_CID>
61447

> <PUBCHEM_CONFORMER_RMSD>
0.6

> <PUBCHEM_CONFORMER_DIVERSEORDER>
1
19
32
11
100
80
58
87
120
113
78
51
24
12
61
117
79
68
21
84
25
129
42
98
105
109
4
13
66
39
52
30
123
6
126
53
47
124
56
9
132
7
37
92
46
125
77
45
102
5
90
28
63
59
135
89
57
15
14
35
41
76
34
97
82
26
33
74
49
50
31
8
138
88
81
72
86
23
112
43
128
83
71
96
16
48
103
55
60
64
130
116
106
36
111
115
134
27
119
85
137
38
18
118
131
29
133
104
65
10
40
121
91
70
67
75
17
2
44
95
73
62
127
99
136
93
54
101
114
22
69
20
3
94
110
122
107
108

> <PUBCHEM_MMFF94_PARTIAL_CHARGES>
16
1 -0.43
10 0.66
12 -0.15
13 -0.15
15 -0.15
2 -0.57
26 0.15
27 0.15
28 0.15
29 0.15
3 0.42
33 0.15
5 -0.14
7 0.06
8 -0.15
9 -0.15

> <PUBCHEM_EFFECTIVE_ROTOR_COUNT>
6

> <PUBCHEM_PHARMACOPHORE_FEATURES>
4
1 14 hydrophobe
1 2 acceptor
1 6 hydrophobe
6 5 8 9 12 13 15 rings

> <PUBCHEM_HEAVY_ATOM_COUNT>
15

> <PUBCHEM_ATOM_DEF_STEREO_COUNT>
0

> <PUBCHEM_ATOM_UDEF_STEREO_COUNT>
1

> <PUBCHEM_BOND_DEF_STEREO_COUNT>
0

> <PUBCHEM_BOND_UDEF_STEREO_COUNT>
0

> <PUBCHEM_ISOTOPIC_ATOM_COUNT>
0

> <PUBCHEM_COMPONENT_COUNT>
1

> <PUBCHEM_CACTVS_TAUTO_COUNT>
1

> <PUBCHEM_CONFORMER_ID>
0000F00700000001

> <PUBCHEM_MMFF94_ENERGY>
27.7021

> <PUBCHEM_FEATURE_SELFOVERLAP>
20.297

> <PUBCHEM_SHAPE_FINGERPRINT>
11357001 24 18336828567834988600
12326174 3 17394703504371288041
12500047 106 17980472370286450916
12553582 1 18408880758925806338
14863182 85 15446118357077186419
15490181 8 17328293650546258297
15906896 17 18119518835074622929
16945 1 18263916640493590321
1813 80 18269854140627497966
19422 9 18339933717526264498
20361792 2 18339352088802206023
20524608 308 18195244404250506920
20645476 183 17903914453264669420
20645477 70 17688011434121617079
20671657 53 18268145538455291071
20711985 344 18265875995931154881
20871998 184 18269276776668833437
20871998 22 18267300009433681841
21296965 67 18337950194307315905
21339142 126 18339924822685748774
21426921 1 18337955572170859948
21524375 3 17544460964866123776
22112679 90 18340223967105375549
23402539 116 18187082841518164498
23419403 2 15334840891423589215
23552423 10 17621599840723250751
23557571 272 18200595787920892884
23559900 14 17913198769001413378
23598288 3 18189915148399492364
23728640 28 17905024972640619346
2748010 2 18267844233356261181
3091708 16 9207866178525046936
4175511 71 18338806731245689141
458136 41 17180264712234371049
58051976 100 18265337205632861038
6049 1 18059842945009898928
6992083 37 18200612366125078739
7364860 26 17836084846465640217
81228 2 18266720442405130577
90316 7 18412270510160717961

> <PUBCHEM_SHAPE_MULTIPOLES>
296.95
6.23
3.26
1.02
8.92
3.99
0
-5.51
0.18
-1.79
-0.69
-0.4
-0.32
-0.12

> <PUBCHEM_SHAPE_SELFOVERLAP>
598.458

> <PUBCHEM_SHAPE_VOLUME>
173.7

> <PUBCHEM_COORDINATE_TYPE>
2
5
10

$$$$
