61452
  -OEChem-11232109113D

 30 30  0     0  0  0  0  0  0999 V2000
    3.9233    0.0848    0.3405 O   0  0  0  0  0  0  0  0  0  0  0  0
    2.5508   -0.4410   -1.4371 O   0  0  0  0  0  0  0  0  0  0  0  0
    0.2129   -0.0504    0.1095 C   0  0  0  0  0  0  0  0  0  0  0  0
   -0.9376    0.1911    1.0977 C   0  0  0  0  0  0  0  0  0  0  0  0
    1.6042    0.0707    0.7348 C   0  0  0  0  0  0  0  0  0  0  0  0
   -2.3144    0.1009    0.4917 C   0  0  0  0  0  0  0  0  0  0  0  0
   -2.9043    1.2414   -0.0335 C   0  0  0  0  0  0  0  0  0  0  0  0
   -2.9704   -1.1212    0.4678 C   0  0  0  0  0  0  0  0  0  0  0  0
    2.7201   -0.1399   -0.2627 C   0  0  0  0  0  0  0  0  0  0  0  0
   -4.1786    1.1580   -0.5946 C   0  0  0  0  0  0  0  0  0  0  0  0
   -4.2447   -1.2045   -0.0935 C   0  0  0  0  0  0  0  0  0  0  0  0
   -4.8488   -0.0649   -0.6247 C   0  0  0  0  0  0  0  0  0  0  0  0
    5.0705   -0.0522   -0.5041 C   0  0  0  0  0  0  0  0  0  0  0  0
    6.3170    0.2270    0.3082 C   0  0  0  0  0  0  0  0  0  0  0  0
    0.1294    0.6614   -0.7225 H   0  0  0  0  0  0  0  0  0  0  0  0
    0.1030   -1.0471   -0.3377 H   0  0  0  0  0  0  0  0  0  0  0  0
   -0.8609   -0.5265    1.9253 H   0  0  0  0  0  0  0  0  0  0  0  0
   -0.8152    1.1785    1.5623 H   0  0  0  0  0  0  0  0  0  0  0  0
    1.7148   -0.6737    1.5310 H   0  0  0  0  0  0  0  0  0  0  0  0
    1.7190    1.0714    1.1667 H   0  0  0  0  0  0  0  0  0  0  0  0
   -2.3895    2.1979   -0.0170 H   0  0  0  0  0  0  0  0  0  0  0  0
   -2.5075   -2.0147    0.8769 H   0  0  0  0  0  0  0  0  0  0  0  0
   -4.6488    2.0452   -1.0088 H   0  0  0  0  0  0  0  0  0  0  0  0
   -4.7664   -2.1568   -0.1176 H   0  0  0  0  0  0  0  0  0  0  0  0
   -5.8408   -0.1299   -1.0620 H   0  0  0  0  0  0  0  0  0  0  0  0
    5.1101   -1.0715   -0.9040 H   0  0  0  0  0  0  0  0  0  0  0  0
    5.0013    0.6614   -1.3327 H   0  0  0  0  0  0  0  0  0  0  0  0
    7.2153    0.1309   -0.3082 H   0  0  0  0  0  0  0  0  0  0  0  0
    6.2840    1.2370    0.7300 H   0  0  0  0  0  0  0  0  0  0  0  0
    6.3910   -0.4674    1.1516 H   0  0  0  0  0  0  0  0  0  0  0  0
  1  9  1  0  0  0  0
  1 13  1  0  0  0  0
  2  9  2  0  0  0  0
  3  4  1  0  0  0  0
  3  5  1  0  0  0  0
  3 15  1  0  0  0  0
  3 16  1  0  0  0  0
  4  6  1  0  0  0  0
  4 17  1  0  0  0  0
  4 18  1  0  0  0  0
  5  9  1  0  0  0  0
  5 19  1  0  0  0  0
  5 20  1  0  0  0  0
  6  7  2  0  0  0  0
  6  8  1  0  0  0  0
  7 10  1  0  0  0  0
  7 21  1  0  0  0  0
  8 11  2  0  0  0  0
  8 22  1  0  0  0  0
 10 12  2  0  0  0  0
 10 23  1  0  0  0  0
 11 12  1  0  0  0  0
 11 24  1  0  0  0  0
 12 25  1  0  0  0  0
 13 14  1  0  0  0  0
 13 26  1  0  0  0  0
 13 27  1  0  0  0  0
 14 28  1  0  0  0  0
 14 29  1  0  0  0  0
 14 30  1  0  0  0  0
M  END
> <PUBCHEM_COMPOUND_CID>
61452

> <PUBCHEM_CONFORMER_RMSD>
0.6

> <PUBCHEM_CONFORMER_DIVERSEORDER>
1
172
49
26
98
185
163
110
100
28
194
105
131
186
151
120
81
159
143
63
55
196
60
21
99
95
198
57
115
199
101
176
116
102
87
166
156
190
7
179
146
24
173
76
68
4
64
128
62
193
177
134
96
123
154
53
67
54
107
35
147
88
23
157
126
184
50
118
111
39
178
74
45
6
140
104
31
201
117
158
37
188
20
108
112
94
103
27
200
52
137
106
70
164
38
42
113
66
132
41
84
130
29
47
162
139
83
149
181
141
174
43
195
34
155
3
122
82
86
80
30
65
121
153
79
97
175
197
13
180
5
93
85
9
90
170
14
119
187
44
92
51
12
36
183
72
91
136
191
182
22
2
142
129
144
75
17
189
78
46
135
15
16
8
32
71
165
138
125
56
127
58
192
171
148
161
69
33
145
77
114
150
18
133
40
89
10
19
124
109
48
168
11
169
160
61
25
152
167
59
73

> <PUBCHEM_MMFF94_PARTIAL_CHARGES>
17
1 -0.43
10 -0.15
11 -0.15
12 -0.15
13 0.28
2 -0.57
21 0.15
22 0.15
23 0.15
24 0.15
25 0.15
4 0.14
5 0.06
6 -0.14
7 -0.15
8 -0.15
9 0.66

> <PUBCHEM_EFFECTIVE_ROTOR_COUNT>
6

> <PUBCHEM_PHARMACOPHORE_FEATURES>
2
1 2 acceptor
6 6 7 8 10 11 12 rings

> <PUBCHEM_HEAVY_ATOM_COUNT>
14

> <PUBCHEM_ATOM_DEF_STEREO_COUNT>
0

> <PUBCHEM_ATOM_UDEF_STEREO_COUNT>
0

> <PUBCHEM_BOND_DEF_STEREO_COUNT>
0

> <PUBCHEM_BOND_UDEF_STEREO_COUNT>
0

> <PUBCHEM_ISOTOPIC_ATOM_COUNT>
0

> <PUBCHEM_COMPONENT_COUNT>
1

> <PUBCHEM_CACTVS_TAUTO_COUNT>
1

> <PUBCHEM_CONFORMER_ID>
0000F00C00000001

> <PUBCHEM_MMFF94_ENERGY>
21.2916

> <PUBCHEM_FEATURE_SELFOVERLAP>
10.148

> <PUBCHEM_SHAPE_FINGERPRINT>
11089746 13 17385723621530380132
11287383 113 18202282537309839152
11315181 36 18343304777348633368
11401426 45 17748827419033118848
114248 4 18202845456813328392
12091667 2 18040719173300467000
14123238 8 16128657453276460946
1420 363 16917073269737495982
14251718 22 18341893013166537962
17834072 33 18334015029654821948
17834076 25 16588023515498128552
17870717 6 18342749502665287311
19489759 90 18261109673196466704
200 152 16559031575537707355
20279233 1 18201726145223001942
20300324 65 18259704501931913893
20645477 56 18334858277964589113
20645477 70 17703233897555851614
22485316 2 18410573968246102970
23218964 4 13406787827230407882
23402539 116 17967811652384348820
23402655 69 17749102253964107165
23557571 272 18342177739096420709
23559900 14 18341604953641258440
23590187 156 18334010618485928210
300161 21 17821721728534856650
351380 180 18186238442073025828
351380 3 14549017671793886660
42 15 10447929472843137224
42788 4 18187082862787019368
441001 317 18334856099814913361
474229 33 17132396129389590958
542803 24 17167865266209943956
9971528 1 17022623053346890190

> <PUBCHEM_SHAPE_MULTIPOLES>
276.37
13.52
1.04
0.97
15.18
0.04
-0.07
0.58
-1.97
-1.52
-0.02
0.22
-0.02
0.09

> <PUBCHEM_SHAPE_SELFOVERLAP>
551.232

> <PUBCHEM_SHAPE_VOLUME>
163.7

> <PUBCHEM_COORDINATE_TYPE>
2
5
10

$$$$
