61457
  -OEChem-11232109183D

 37 37  0     1  0  0  0  0  0999 V2000
   -0.4379   -0.8872    0.1806 O   0  0  0  0  0  0  0  0  0  0  0  0
   -3.6439    0.6365   -0.2404 O   0  0  0  0  0  0  0  0  0  0  0  0
   -4.6898   -1.3373    0.3487 O   0  0  0  0  0  0  0  0  0  0  0  0
   -0.1663    0.4321    0.6852 C   0  0  2  0  0  0  0  0  0  0  0  0
   -1.3853    1.2711    0.3475 C   0  0  0  0  0  0  0  0  0  0  0  0
   -2.4931    0.2548    0.4819 C   0  0  2  0  0  0  0  0  0  0  0  0
    1.1183    0.9603    0.0774 C   0  0  0  0  0  0  0  0  0  0  0  0
   -1.8440   -0.9903   -0.0878 C   0  0  0  0  0  0  0  0  0  0  0  0
    2.3082    0.0618    0.4140 C   0  0  0  0  0  0  0  0  0  0  0  0
    3.5966    0.5802   -0.2288 C   0  0  0  0  0  0  0  0  0  0  0  0
    4.7786   -0.3420    0.0781 C   0  0  0  0  0  0  0  0  0  0  0  0
    6.0896    0.1189   -0.5626 C   0  0  0  0  0  0  0  0  0  0  0  0
   -4.6786   -0.2572   -0.2260 C   0  0  0  0  0  0  0  0  0  0  0  0
    7.2728   -0.7802   -0.2394 C   0  0  0  0  0  0  0  0  0  0  0  0
   -5.8253    0.2784   -1.0284 C   0  0  0  0  0  0  0  0  0  0  0  0
   -0.0634    0.3452    1.7742 H   0  0  0  0  0  0  0  0  0  0  0  0
   -1.5092    2.1320    1.0112 H   0  0  0  0  0  0  0  0  0  0  0  0
   -1.3450    1.6550   -0.6798 H   0  0  0  0  0  0  0  0  0  0  0  0
   -2.7373    0.1213    1.5441 H   0  0  0  0  0  0  0  0  0  0  0  0
    1.0170    1.0066   -1.0144 H   0  0  0  0  0  0  0  0  0  0  0  0
    1.3075    1.9797    0.4338 H   0  0  0  0  0  0  0  0  0  0  0  0
   -1.9806   -1.0743   -1.1717 H   0  0  0  0  0  0  0  0  0  0  0  0
   -2.2165   -1.9100    0.3721 H   0  0  0  0  0  0  0  0  0  0  0  0
    2.1201   -0.9597    0.0627 H   0  0  0  0  0  0  0  0  0  0  0  0
    2.4351    0.0108    1.5022 H   0  0  0  0  0  0  0  0  0  0  0  0
    3.4641    0.6522   -1.3151 H   0  0  0  0  0  0  0  0  0  0  0  0
    3.8132    1.5903    0.1388 H   0  0  0  0  0  0  0  0  0  0  0  0
    4.5487   -1.3561   -0.2718 H   0  0  0  0  0  0  0  0  0  0  0  0
    4.9136   -0.4055    1.1650 H   0  0  0  0  0  0  0  0  0  0  0  0
    6.3188    1.1374   -0.2270 H   0  0  0  0  0  0  0  0  0  0  0  0
    5.9654    0.1637   -1.6511 H   0  0  0  0  0  0  0  0  0  0  0  0
    7.4511   -0.8174    0.8399 H   0  0  0  0  0  0  0  0  0  0  0  0
    7.0954   -1.8005   -0.5936 H   0  0  0  0  0  0  0  0  0  0  0  0
    8.1799   -0.4039   -0.7225 H   0  0  0  0  0  0  0  0  0  0  0  0
   -5.5137    0.4283   -2.0651 H   0  0  0  0  0  0  0  0  0  0  0  0
   -6.1765    1.2169   -0.5920 H   0  0  0  0  0  0  0  0  0  0  0  0
   -6.6475   -0.4427   -1.0124 H   0  0  0  0  0  0  0  0  0  0  0  0
  1  4  1  0  0  0  0
  1  8  1  0  0  0  0
  2  6  1  0  0  0  0
  2 13  1  0  0  0  0
  3 13  2  0  0  0  0
  4  5  1  0  0  0  0
  4  7  1  0  0  0  0
  4 16  1  0  0  0  0
  5  6  1  0  0  0  0
  5 17  1  0  0  0  0
  5 18  1  0  0  0  0
  6  8  1  0  0  0  0
  6 19  1  0  0  0  0
  7  9  1  0  0  0  0
  7 20  1  0  0  0  0
  7 21  1  0  0  0  0
  8 22  1  0  0  0  0
  8 23  1  0  0  0  0
  9 10  1  0  0  0  0
  9 24  1  0  0  0  0
  9 25  1  0  0  0  0
 10 11  1  0  0  0  0
 10 26  1  0  0  0  0
 10 27  1  0  0  0  0
 11 12  1  0  0  0  0
 11 28  1  0  0  0  0
 11 29  1  0  0  0  0
 12 14  1  0  0  0  0
 12 30  1  0  0  0  0
 12 31  1  0  0  0  0
 13 15  1  0  0  0  0
 14 32  1  0  0  0  0
 14 33  1  0  0  0  0
 14 34  1  0  0  0  0
 15 35  1  0  0  0  0
 15 36  1  0  0  0  0
 15 37  1  0  0  0  0
M  END
> <PUBCHEM_COMPOUND_CID>
61457

> <PUBCHEM_CONFORMER_RMSD>
0.8

> <PUBCHEM_CONFORMER_DIVERSEORDER>
1
207
62
284
15
131
216
142
261
290
376
196
134
332
335
383
117
197
260
155
243
19
322
5
122
147
329
317
149
108
238
49
291
386
319
378
283
302
235
9
161
397
248
344
76
336
2
263
393
253
80
301
270
33
125
167
249
133
288
334
81
113
56
295
31
97
269
297
144
271
137
278
241
326
342
126
354
178
20
101
396
148
141
321
45
388
132
68
171
3
356
289
115
204
359
66
54
300
130
175
183
87
224
168
262
331
313
273
368
213
75
268
172
286
198
60
292
341
303
72
158
10
272
384
88
309
69
194
382
32
83
369
328
63
223
36
280
312
38
236
70
186
364
7
129
293
42
234
136
294
192
150
177
162
255
139
355
231
13
135
173
361
265
143
282
8
226
352
285
389
306
23
370
179
91
339
350
323
12
360
230
39
41
145
320
380
200
209
16
118
311
373
314
94
245
392
181
48
119
57
4
363
190
343
176
17
351
353
242
107
349
114
53
214
14
346
154
89
222
189
385
174
111
151
219
11
100
201
325
22
86
184
315
195
138
281
112
211
264
212
164
217
127
299
128
308
26
85
163
24
345
74
84
296
44
199
324
304
374
193
52
202
310
146
208
55
40
140
375
28
102
27
367
274
123
365
379
82
220
152
229
366
206
357
43
182
394
64
29
318
170
104
79
71
90
391
218
387
47
232
61
287
156
227
6
254
180
50
121
210
247
305
333
51
78
21
358
228
18
252
77
240
250
187
124
58
381
96
233
298
259
191
99
37
362
215
225
67
185
35
46
25
347
34
246
327
390
160
266
221
337
30
205
92
237
169
59
348
338
330
98
377
166
65
95
307
279
93
340
159
105
153
203
316
267
371
103
73
157
251
257
106
239
110
372
116
395
276
277
256
258
244
109
188
275
120
165

> <PUBCHEM_MMFF94_PARTIAL_CHARGES>
8
1 -0.56
13 0.66
15 0.06
2 -0.43
3 -0.57
4 0.28
6 0.28
8 0.28

> <PUBCHEM_EFFECTIVE_ROTOR_COUNT>
8

> <PUBCHEM_PHARMACOPHORE_FEATURES>
5
1 1 acceptor
1 14 hydrophobe
1 3 acceptor
5 1 4 5 6 8 rings
5 7 9 10 11 12 hydrophobe

> <PUBCHEM_HEAVY_ATOM_COUNT>
15

> <PUBCHEM_ATOM_DEF_STEREO_COUNT>
0

> <PUBCHEM_ATOM_UDEF_STEREO_COUNT>
2

> <PUBCHEM_BOND_DEF_STEREO_COUNT>
0

> <PUBCHEM_BOND_UDEF_STEREO_COUNT>
0

> <PUBCHEM_ISOTOPIC_ATOM_COUNT>
0

> <PUBCHEM_COMPONENT_COUNT>
1

> <PUBCHEM_CACTVS_TAUTO_COUNT>
1

> <PUBCHEM_CONFORMER_ID>
0000F01100000001

> <PUBCHEM_MMFF94_ENERGY>
17.4403

> <PUBCHEM_FEATURE_SELFOVERLAP>
25.371

> <PUBCHEM_SHAPE_FINGERPRINT>
10354089 29 10952048953731493030
106641 1 13470395691641649950
10968037 39 18409451401413035196
11315181 36 18341618130964854320
12091667 2 17095244717839315929
12236239 1 18113338613685693952
12670543 26 18334009462886634917
12714333 28 16081088182233517548
13288520 33 18272090500144484481
13533116 47 18270959043167587738
13690532 89 18413108372359657753
13862211 1 17988922283927051670
13964095 4 18186800257743475109
1420 363 17704076200792763534
14251718 22 18334015003863802058
14251731 8 18408040731946862915
14251752 14 17967807220057292100
14251764 46 16487254370208466662
14911166 2 18410852179121469753
15048467 5 13984659243834942829
15242439 84 18040998462086271296
15501527 16 10737286853014183176
15716309 27 14836401432666606468
17834072 33 18408887373544219980
17834072 8 18408037416379654253
17834076 25 15719392832997161120
18006028 8 17775565338771713216
187816 3 18335421270276671089
200 152 17418094308318088896
20281389 69 7853574600360067118
20645477 56 11314308369116869776
20645477 70 18114741522035927018
20735858 18 12607403299629114012
20767249 213 10881403136449117862
21130983 4 11386371431038620574
21267235 1 18409734001945646571
22224240 67 11743832560790878404
23198884 109 16443064989029306212
23402539 116 17203326702449926065
23559900 14 18270112547525064736
26918003 58 13614519675156302879
29717793 49 18409735045765040116
300161 21 11746934317626522560
3004659 81 18261110781983824656
42788 4 18408605864249988304
542803 24 14634867557065645516
59682541 35 9294995891268321933
59755656 215 18342741789241991238
59755656 520 16732980946677191562
8209 1 18334294266542049708

> <PUBCHEM_SHAPE_MULTIPOLES>
291.09
16.48
1.1
0.79
16.32
0.03
0.06
3.86
4.39
-0.4
-0.07
-0.33
-0.04
0.17

> <PUBCHEM_SHAPE_SELFOVERLAP>
561.003

> <PUBCHEM_SHAPE_VOLUME>
178.6

> <PUBCHEM_COORDINATE_TYPE>
2
5
10

$$$$
