61455
  -OEChem-11232108593D

 35 34  0     0  0  0  0  0  0999 V2000
    0.9436    0.2018   -0.5502 O   0  0  0  0  0  0  0  0  0  0  0  0
    2.2179    1.8402    0.4555 O   0  0  0  0  0  0  0  0  0  0  0  0
   -2.7289    0.4403    0.2064 C   0  0  0  0  0  0  0  0  0  0  0  0
   -3.9584   -0.3918   -0.1687 C   0  0  0  0  0  0  0  0  0  0  0  0
   -1.4272   -0.0982   -0.3853 C   0  0  0  0  0  0  0  0  0  0  0  0
    3.9746   -0.8815   -0.1466 C   0  0  0  0  0  0  0  0  0  0  0  0
   -5.2644    0.1613    0.4032 C   0  0  0  0  0  0  0  0  0  0  0  0
   -0.2303    0.7414    0.0413 C   0  0  0  0  0  0  0  0  0  0  0  0
    3.2570    0.1826   -0.9915 C   0  0  0  0  0  0  0  0  0  0  0  0
    4.5323   -0.2853    1.1484 C   0  0  0  0  0  0  0  0  0  0  0  0
    3.0130   -2.0249    0.1828 C   0  0  0  0  0  0  0  0  0  0  0  0
    2.1140    0.8527   -0.2591 C   0  0  0  0  0  0  0  0  0  0  0  0
   -6.4431   -0.7386    0.0637 C   0  0  0  0  0  0  0  0  0  0  0  0
   -2.6430    0.4752    1.2996 H   0  0  0  0  0  0  0  0  0  0  0  0
   -2.8791    1.4731   -0.1322 H   0  0  0  0  0  0  0  0  0  0  0  0
   -4.0373   -0.4448   -1.2617 H   0  0  0  0  0  0  0  0  0  0  0  0
   -3.8128   -1.4193    0.1876 H   0  0  0  0  0  0  0  0  0  0  0  0
   -1.4892   -0.1182   -1.4804 H   0  0  0  0  0  0  0  0  0  0  0  0
   -1.2712   -1.1385   -0.0740 H   0  0  0  0  0  0  0  0  0  0  0  0
    4.8078   -1.2818   -0.7368 H   0  0  0  0  0  0  0  0  0  0  0  0
   -5.1836    0.2515    1.4925 H   0  0  0  0  0  0  0  0  0  0  0  0
   -5.4469    1.1664    0.0061 H   0  0  0  0  0  0  0  0  0  0  0  0
   -0.3620    1.7780   -0.2905 H   0  0  0  0  0  0  0  0  0  0  0  0
   -0.1297    0.7238    1.1329 H   0  0  0  0  0  0  0  0  0  0  0  0
    2.8830   -0.2489   -1.9280 H   0  0  0  0  0  0  0  0  0  0  0  0
    3.9607    0.9702   -1.2881 H   0  0  0  0  0  0  0  0  0  0  0  0
    3.7401    0.0417    1.8296 H   0  0  0  0  0  0  0  0  0  0  0  0
    5.1342   -1.0305    1.6803 H   0  0  0  0  0  0  0  0  0  0  0  0
    5.1786    0.5725    0.9350 H   0  0  0  0  0  0  0  0  0  0  0  0
    2.2092   -1.7109    0.8566 H   0  0  0  0  0  0  0  0  0  0  0  0
    2.5609   -2.4322   -0.7276 H   0  0  0  0  0  0  0  0  0  0  0  0
    3.5515   -2.8410    0.6772 H   0  0  0  0  0  0  0  0  0  0  0  0
   -7.3673   -0.3248    0.4791 H   0  0  0  0  0  0  0  0  0  0  0  0
   -6.5680   -0.8289   -1.0201 H   0  0  0  0  0  0  0  0  0  0  0  0
   -6.3034   -1.7419    0.4788 H   0  0  0  0  0  0  0  0  0  0  0  0
  1  8  1  0  0  0  0
  1 12  1  0  0  0  0
  2 12  2  0  0  0  0
  3  4  1  0  0  0  0
  3  5  1  0  0  0  0
  3 14  1  0  0  0  0
  3 15  1  0  0  0  0
  4  7  1  0  0  0  0
  4 16  1  0  0  0  0
  4 17  1  0  0  0  0
  5  8  1  0  0  0  0
  5 18  1  0  0  0  0
  5 19  1  0  0  0  0
  6  9  1  0  0  0  0
  6 10  1  0  0  0  0
  6 11  1  0  0  0  0
  6 20  1  0  0  0  0
  7 13  1  0  0  0  0
  7 21  1  0  0  0  0
  7 22  1  0  0  0  0
  8 23  1  0  0  0  0
  8 24  1  0  0  0  0
  9 12  1  0  0  0  0
  9 25  1  0  0  0  0
  9 26  1  0  0  0  0
 10 27  1  0  0  0  0
 10 28  1  0  0  0  0
 10 29  1  0  0  0  0
 11 30  1  0  0  0  0
 11 31  1  0  0  0  0
 11 32  1  0  0  0  0
 13 33  1  0  0  0  0
 13 34  1  0  0  0  0
 13 35  1  0  0  0  0
M  END
> <PUBCHEM_COMPOUND_CID>
61455

> <PUBCHEM_CONFORMER_RMSD>
0.8

> <PUBCHEM_CONFORMER_DIVERSEORDER>
1
45
12
198
36
41
154
14
220
147
138
82
182
185
90
114
179
50
203
164
189
107
47
95
190
177
172
3
167
134
197
191
19
152
159
28
11
58
52
193
29
38
70
84
2
192
61
165
170
9
146
204
48
135
75
96
155
67
33
4
21
10
168
112
175
22
94
151
206
109
55
163
59
202
5
136
64
158
46
129
122
108
207
123
42
199
186
23
105
7
208
133
30
200
83
205
72
25
121
77
100
62
87
116
20
219
65
118
166
157
40
128
97
18
56
115
35
201
43
218
174
169
93
113
34
184
103
32
63
153
6
37
92
101
143
210
111
162
86
215
91
211
142
137
187
213
196
57
78
39
71
120
13
26
176
161
69
195
188
160
178
74
127
110
60
214
79
102
180
15
212
24
183
49
31
139
89
27
106
173
140
125
148
98
44
131
126
16
130
124
156
171
117
119
66
8
76
145
181
217
144
149
132
194
141
80
85
104
209
216
17
99
81
53
51
68
73
88
150
54

> <PUBCHEM_MMFF94_PARTIAL_CHARGES>
5
1 -0.43
12 0.66
2 -0.57
8 0.28
9 0.06

> <PUBCHEM_EFFECTIVE_ROTOR_COUNT>
8

> <PUBCHEM_PHARMACOPHORE_FEATURES>
4
1 13 hydrophobe
1 2 acceptor
3 6 10 11 hydrophobe
4 3 4 5 7 hydrophobe

> <PUBCHEM_HEAVY_ATOM_COUNT>
13

> <PUBCHEM_ATOM_DEF_STEREO_COUNT>
0

> <PUBCHEM_ATOM_UDEF_STEREO_COUNT>
0

> <PUBCHEM_BOND_DEF_STEREO_COUNT>
0

> <PUBCHEM_BOND_UDEF_STEREO_COUNT>
0

> <PUBCHEM_ISOTOPIC_ATOM_COUNT>
0

> <PUBCHEM_COMPONENT_COUNT>
1

> <PUBCHEM_CACTVS_TAUTO_COUNT>
1

> <PUBCHEM_CONFORMER_ID>
0000F00F00000001

> <PUBCHEM_MMFF94_ENERGY>
5.6122

> <PUBCHEM_FEATURE_SELFOVERLAP>
20.297

> <PUBCHEM_SHAPE_FINGERPRINT>
12596602 18 17418094317182674851
13167823 11 18342175592245600239
13533116 47 18411983546463820499
14123238 8 11527946751448911305
14251717 144 18334296431332609202
14252887 29 17989211408847190982
14455015 7 17968105213689297811
17834072 33 18411138061056450919
17834076 25 10375870775257018473
20369508 70 18411417319450287112
20432913 95 18335988597049706339
20645477 70 18187647989930455974
22224240 67 18341320181105409162
22485316 2 18411982485685701239
23402539 116 18272930514897623189
3060560 45 15068343419220180370
4047638 21 10663816373660204412
42 15 18409450275983930133
465052 167 18342183262503381151
4990 188 16515405148844214811
522135 26 18260270758672445772
5374978 207 16917068862684371105
57483677 66 18411982490429373223

> <PUBCHEM_SHAPE_MULTIPOLES>
255.8
13.4
1.38
0.86
18.35
0.23
0.04
4.1
1.79
-1.41
0.12
-0.69
-0.02
-0.17

> <PUBCHEM_SHAPE_SELFOVERLAP>
467.498

> <PUBCHEM_SHAPE_VOLUME>
163.3

> <PUBCHEM_COORDINATE_TYPE>
2
5
10

$$$$
