61453
  -OEChem-11232109443D

 31 30  0     0  0  0  0  0  0999 V2000
   -2.2509    1.1170   -0.5405 O   0  0  0  0  0  0  0  0  0  0  0  0
   -3.1809   -0.9138    0.3357 O   0  0  0  0  0  0  0  0  0  0  0  0
    0.4810   -0.0700   -0.3026 C   0  0  0  0  0  0  0  0  0  0  0  0
    1.7798   -0.4969    0.3843 C   0  0  0  0  0  0  0  0  0  0  0  0
   -0.7789   -0.6311    0.3681 C   0  0  0  0  0  0  0  0  0  0  0  0
    3.0009    0.0967   -0.3223 C   0  0  0  0  0  0  0  0  0  0  0  0
   -2.0909   -0.2975   -0.3587 C   0  0  0  0  0  0  0  0  0  0  0  0
    4.2983   -0.3007    0.3814 C   0  0  0  0  0  0  0  0  0  0  0  0
    5.5113    0.3147   -0.2974 C   0  0  0  0  0  0  0  0  0  0  0  0
   -2.3403    1.8733    0.6584 C   0  0  0  0  0  0  0  0  0  0  0  0
   -4.4295   -0.6917   -0.3064 C   0  0  0  0  0  0  0  0  0  0  0  0
    0.5034   -0.4026   -1.3480 H   0  0  0  0  0  0  0  0  0  0  0  0
    0.4290    1.0249   -0.3218 H   0  0  0  0  0  0  0  0  0  0  0  0
    1.8511   -1.5911    0.3886 H   0  0  0  0  0  0  0  0  0  0  0  0
    1.7626   -0.1689    1.4306 H   0  0  0  0  0  0  0  0  0  0  0  0
   -0.8240   -0.2790    1.4061 H   0  0  0  0  0  0  0  0  0  0  0  0
   -0.6949   -1.7234    0.4420 H   0  0  0  0  0  0  0  0  0  0  0  0
    3.0267   -0.2457   -1.3640 H   0  0  0  0  0  0  0  0  0  0  0  0
    2.9162    1.1901   -0.3435 H   0  0  0  0  0  0  0  0  0  0  0  0
   -2.0425   -0.7370   -1.3625 H   0  0  0  0  0  0  0  0  0  0  0  0
    4.4008   -1.3921    0.3841 H   0  0  0  0  0  0  0  0  0  0  0  0
    4.2697    0.0251    1.4278 H   0  0  0  0  0  0  0  0  0  0  0  0
    5.4551    1.4079   -0.2859 H   0  0  0  0  0  0  0  0  0  0  0  0
    5.5874   -0.0148   -1.3386 H   0  0  0  0  0  0  0  0  0  0  0  0
    6.4279    0.0164    0.2211 H   0  0  0  0  0  0  0  0  0  0  0  0
   -3.0930    1.4637    1.3378 H   0  0  0  0  0  0  0  0  0  0  0  0
   -2.6361    2.8922    0.3930 H   0  0  0  0  0  0  0  0  0  0  0  0
   -1.3706    1.9275    1.1596 H   0  0  0  0  0  0  0  0  0  0  0  0
   -4.4033   -1.0604   -1.3364 H   0  0  0  0  0  0  0  0  0  0  0  0
   -4.6985    0.3680   -0.2924 H   0  0  0  0  0  0  0  0  0  0  0  0
   -5.1970   -1.2464    0.2403 H   0  0  0  0  0  0  0  0  0  0  0  0
  1  7  1  0  0  0  0
  1 10  1  0  0  0  0
  2  7  1  0  0  0  0
  2 11  1  0  0  0  0
  3  4  1  0  0  0  0
  3  5  1  0  0  0  0
  3 12  1  0  0  0  0
  3 13  1  0  0  0  0
  4  6  1  0  0  0  0
  4 14  1  0  0  0  0
  4 15  1  0  0  0  0
  5  7  1  0  0  0  0
  5 16  1  0  0  0  0
  5 17  1  0  0  0  0
  6  8  1  0  0  0  0
  6 18  1  0  0  0  0
  6 19  1  0  0  0  0
  7 20  1  0  0  0  0
  8  9  1  0  0  0  0
  8 21  1  0  0  0  0
  8 22  1  0  0  0  0
  9 23  1  0  0  0  0
  9 24  1  0  0  0  0
  9 25  1  0  0  0  0
 10 26  1  0  0  0  0
 10 27  1  0  0  0  0
 10 28  1  0  0  0  0
 11 29  1  0  0  0  0
 11 30  1  0  0  0  0
 11 31  1  0  0  0  0
M  END
> <PUBCHEM_COMPOUND_CID>
61453

> <PUBCHEM_CONFORMER_RMSD>
0.6

> <PUBCHEM_CONFORMER_DIVERSEORDER>
5
109
120
71
136
191
31
155
174
116
97
132
3
89
25
185
179
20
181
2
135
1
188
46
114
125
172
166
124
110
176
158
177
61
100
54
117
127
10
137
55
183
184
84
72
107
128
126
171
159
24
143
88
129
138
165
15
173
40
101
115
164
189
64
43
42
75
161
123
12
74
163
149
30
105
95
49
133
142
102
27
187
118
98
186
190
76
16
119
160
18
6
170
86
175
182
141
147
65
157
53
39
104
77
11
130
162
154
69
13
87
94
67
48
80
32
83
111
79
131
192
146
148
82
60
168
106
167
91
34
52
62
103
23
99
22
112
144
92
180
70
169
29
8
93
73
178
108
26
17
28
150
58
134
78
41
121
156
45
51
96
153
151
38
140
7
35
145
14
36
4
50
63
57
81
47
37
113
66
139
44
152
122
19
56
90
68
33
21
59
85
9

> <PUBCHEM_MMFF94_PARTIAL_CHARGES>
5
1 -0.56
10 0.28
11 0.28
2 -0.56
7 0.56

> <PUBCHEM_EFFECTIVE_ROTOR_COUNT>
7

> <PUBCHEM_PHARMACOPHORE_FEATURES>
4
1 1 acceptor
1 2 acceptor
1 9 hydrophobe
5 3 4 5 6 8 hydrophobe

> <PUBCHEM_HEAVY_ATOM_COUNT>
11

> <PUBCHEM_ATOM_DEF_STEREO_COUNT>
0

> <PUBCHEM_ATOM_UDEF_STEREO_COUNT>
0

> <PUBCHEM_BOND_DEF_STEREO_COUNT>
0

> <PUBCHEM_BOND_UDEF_STEREO_COUNT>
0

> <PUBCHEM_ISOTOPIC_ATOM_COUNT>
0

> <PUBCHEM_COMPONENT_COUNT>
1

> <PUBCHEM_CACTVS_TAUTO_COUNT>
1

> <PUBCHEM_CONFORMER_ID>
0000F00D00000005

> <PUBCHEM_MMFF94_ENERGY>
13.1979

> <PUBCHEM_FEATURE_SELFOVERLAP>
20.33

> <PUBCHEM_SHAPE_FINGERPRINT>
10680689 15 17775564247596539510
11062470 55 8142089762280507438
124424 183 13334737933646946102
12932764 1 17060041628056342910
14123238 8 18343865532847936302
14325111 11 18409448042648545338
17802600 8 18334290989661714820
17834072 33 18041562541842808454
17834076 25 11818988582553008591
18522853 276 18409730677071331564
187816 3 18114177562569706811
190213 19 17530685407446817858
1986462 14 18341615884659781732
200 152 18260543446420492223
20300324 65 18412262843701941433
20645477 56 18201160957776326737
20645477 70 17917438567194622366
20719005 15 18335420175576942494
20828058 21 18342459231848553958
22485316 2 8790885173157604572
23380061 127 18413106147613934669
23402539 116 18412819209723868367
23557571 272 17917721183793603252
42788 4 17894346696416529550
58051976 378 18342177777893538558

> <PUBCHEM_SHAPE_MULTIPOLES>
214.64
10.37
1.22
0.76
9.13
0.63
0.01
-0.38
-0.7
-1.36
0.17
-0.02
0.05
-0.28

> <PUBCHEM_SHAPE_SELFOVERLAP>
381.011

> <PUBCHEM_SHAPE_VOLUME>
139.3

> <PUBCHEM_COORDINATE_TYPE>
2
5
10

$$$$
