61464
  -OEChem-11232108543D

 27 27  0     0  0  0  0  0  0999 V2000
    2.7942    0.6918    0.1791 O   0  0  0  0  0  0  0  0  0  0  0  0
    2.8774   -1.6065    0.4452 O   0  0  0  0  0  0  0  0  0  0  0  0
    1.4592    0.6016   -0.3240 C   0  0  0  0  0  0  0  0  0  0  0  0
    0.5524    0.0104    0.7782 C   0  0  0  0  0  0  0  0  0  0  0  0
    0.9945    2.0272   -0.6476 C   0  0  0  0  0  0  0  0  0  0  0  0
    1.4726   -0.2398   -1.6030 C   0  0  0  0  0  0  0  0  0  0  0  0
   -0.9152   -0.0817    0.4279 C   0  0  0  0  0  0  0  0  0  0  0  0
   -1.7493    0.9845    0.7199 C   0  0  0  0  0  0  0  0  0  0  0  0
   -1.3963   -1.2304   -0.1779 C   0  0  0  0  0  0  0  0  0  0  0  0
   -3.1036    0.8997    0.3968 C   0  0  0  0  0  0  0  0  0  0  0  0
   -2.7505   -1.3153   -0.5010 C   0  0  0  0  0  0  0  0  0  0  0  0
   -3.6042   -0.2502   -0.2137 C   0  0  0  0  0  0  0  0  0  0  0  0
    3.3688   -0.4912    0.5201 C   0  0  0  0  0  0  0  0  0  0  0  0
    0.6639    0.6124    1.6925 H   0  0  0  0  0  0  0  0  0  0  0  0
    0.8574   -0.9881    1.1042 H   0  0  0  0  0  0  0  0  0  0  0  0
    1.7213    2.5185   -1.3062 H   0  0  0  0  0  0  0  0  0  0  0  0
    0.9483    2.6428    0.2581 H   0  0  0  0  0  0  0  0  0  0  0  0
    0.0244    2.0584   -1.1518 H   0  0  0  0  0  0  0  0  0  0  0  0
    1.5504   -1.3150   -1.4215 H   0  0  0  0  0  0  0  0  0  0  0  0
    2.3185    0.0383   -2.2427 H   0  0  0  0  0  0  0  0  0  0  0  0
    0.5563   -0.0919   -2.1860 H   0  0  0  0  0  0  0  0  0  0  0  0
   -1.3733    1.8824    1.2015 H   0  0  0  0  0  0  0  0  0  0  0  0
   -0.7414   -2.0670   -0.4033 H   0  0  0  0  0  0  0  0  0  0  0  0
   -3.7686    1.7283    0.6219 H   0  0  0  0  0  0  0  0  0  0  0  0
   -3.1405   -2.2109   -0.9756 H   0  0  0  0  0  0  0  0  0  0  0  0
   -4.6588   -0.3166   -0.4648 H   0  0  0  0  0  0  0  0  0  0  0  0
    4.3860   -0.2908    0.8901 H   0  0  0  0  0  0  0  0  0  0  0  0
  1  3  1  0  0  0  0
  1 13  1  0  0  0  0
  2 13  2  0  0  0  0
  3  4  1  0  0  0  0
  3  5  1  0  0  0  0
  3  6  1  0  0  0  0
  4  7  1  0  0  0  0
  4 14  1  0  0  0  0
  4 15  1  0  0  0  0
  5 16  1  0  0  0  0
  5 17  1  0  0  0  0
  5 18  1  0  0  0  0
  6 19  1  0  0  0  0
  6 20  1  0  0  0  0
  6 21  1  0  0  0  0
  7  8  2  0  0  0  0
  7  9  1  0  0  0  0
  8 10  1  0  0  0  0
  8 22  1  0  0  0  0
  9 11  2  0  0  0  0
  9 23  1  0  0  0  0
 10 12  2  0  0  0  0
 10 24  1  0  0  0  0
 11 12  1  0  0  0  0
 11 25  1  0  0  0  0
 12 26  1  0  0  0  0
 13 27  1  0  0  0  0
M  END
> <PUBCHEM_COMPOUND_CID>
61464

> <PUBCHEM_CONFORMER_RMSD>
0.6

> <PUBCHEM_CONFORMER_DIVERSEORDER>
1
11
12
9
2
6
8
7
10
5
4
3

> <PUBCHEM_MMFF94_PARTIAL_CHARGES>
17
1 -0.43
10 -0.15
11 -0.15
12 -0.15
13 0.66
2 -0.57
22 0.15
23 0.15
24 0.15
25 0.15
26 0.15
27 0.06
3 0.28
4 0.14
7 -0.14
8 -0.15
9 -0.15

> <PUBCHEM_EFFECTIVE_ROTOR_COUNT>
4

> <PUBCHEM_PHARMACOPHORE_FEATURES>
3
1 2 acceptor
3 3 5 6 hydrophobe
6 7 8 9 10 11 12 rings

> <PUBCHEM_HEAVY_ATOM_COUNT>
13

> <PUBCHEM_ATOM_DEF_STEREO_COUNT>
0

> <PUBCHEM_ATOM_UDEF_STEREO_COUNT>
0

> <PUBCHEM_BOND_DEF_STEREO_COUNT>
0

> <PUBCHEM_BOND_UDEF_STEREO_COUNT>
0

> <PUBCHEM_ISOTOPIC_ATOM_COUNT>
0

> <PUBCHEM_COMPONENT_COUNT>
1

> <PUBCHEM_CACTVS_TAUTO_COUNT>
1

> <PUBCHEM_CONFORMER_ID>
0000F01800000001

> <PUBCHEM_MMFF94_ENERGY>
40.0731

> <PUBCHEM_FEATURE_SELFOVERLAP>
15.223

> <PUBCHEM_SHAPE_FINGERPRINT>
10353120 184 15792012238300002788
10922523 26 18114741534192295909
11769659 78 18341322357746622387
12932764 1 18339655515319836713
13296908 3 15626236696969071733
13571099 22 18334571330597890275
13581323 91 18273493481260546347
14144814 61 18409450288615624539
14325111 11 18413388739408762465
15207287 21 16988553607006521007
15775835 57 18187089472430633613
15852999 172 17346600733754428791
16945 1 18272104768131239405
18511873 20 18335139760998257137
20201158 50 17275388711481826839
20279233 1 16486977293294071909
20339313 130 16588314877394654852
20645476 183 18262531414793429495
20653085 51 17167856491765870781
207724 885 18260830384347514673
23402539 116 17988067912295975109
23463225 33 18410855430084723626
23552423 10 18265616674564438569
23557571 272 16988853782460677113
23559900 14 17703229521131408154
3248919 1 17561093500866335457
57812782 119 17775564230158174825
6992083 37 18337680715269494457
7364860 26 18268428108606698040
74978 22 18188216501787176923
8030462 33 18262249918135796340
81228 2 16199053633494294217
9939556 21 18337392742065020853

> <PUBCHEM_SHAPE_MULTIPOLES>
255.8
5.77
1.57
1.03
0.42
0.2
0.26
-1.05
-0.42
-0.12
0.14
-0.35
0
-0.63

> <PUBCHEM_SHAPE_SELFOVERLAP>
524.716

> <PUBCHEM_SHAPE_VOLUME>
146.8

> <PUBCHEM_COORDINATE_TYPE>
2
5
10

$$$$
