61466
  -OEChem-11232108573D

 33 33  0     0  0  0  0  0  0999 V2000
   -3.1599    0.4482   -0.1914 O   0  0  0  0  0  0  0  0  0  0  0  0
   -2.3622   -1.5787    0.5689 O   0  0  0  0  0  0  0  0  0  0  0  0
    1.6501   -0.2385   -0.3447 C   0  0  0  0  0  0  0  0  0  0  0  0
    1.9256    1.0472    0.4469 C   0  0  0  0  0  0  0  0  0  0  0  0
    2.7756   -1.2604   -0.1356 C   0  0  0  0  0  0  0  0  0  0  0  0
    3.2944    1.6341    0.1101 C   0  0  0  0  0  0  0  0  0  0  0  0
    4.1431   -0.6697   -0.4713 C   0  0  0  0  0  0  0  0  0  0  0  0
    4.4095    0.6127    0.3108 C   0  0  0  0  0  0  0  0  0  0  0  0
    0.2999   -0.8351    0.0483 C   0  0  0  0  0  0  0  0  0  0  0  0
   -0.8411    0.1238   -0.2696 C   0  0  0  0  0  0  0  0  0  0  0  0
   -2.1849   -0.4652    0.0947 C   0  0  0  0  0  0  0  0  0  0  0  0
   -4.4978    0.0333    0.1019 C   0  0  0  0  0  0  0  0  0  0  0  0
   -5.4523    1.1482   -0.2690 C   0  0  0  0  0  0  0  0  0  0  0  0
    1.6209    0.0150   -1.4136 H   0  0  0  0  0  0  0  0  0  0  0  0
    1.8718    0.8455    1.5243 H   0  0  0  0  0  0  0  0  0  0  0  0
    1.1825    1.8191    0.2250 H   0  0  0  0  0  0  0  0  0  0  0  0
    2.6010   -2.1435   -0.7618 H   0  0  0  0  0  0  0  0  0  0  0  0
    2.7780   -1.6053    0.9064 H   0  0  0  0  0  0  0  0  0  0  0  0
    3.4832    2.5129    0.7372 H   0  0  0  0  0  0  0  0  0  0  0  0
    3.2980    1.9783   -0.9315 H   0  0  0  0  0  0  0  0  0  0  0  0
    4.1954   -0.4592   -1.5466 H   0  0  0  0  0  0  0  0  0  0  0  0
    4.9258   -1.4046   -0.2514 H   0  0  0  0  0  0  0  0  0  0  0  0
    5.3664    1.0446   -0.0035 H   0  0  0  0  0  0  0  0  0  0  0  0
    4.5003    0.3768    1.3782 H   0  0  0  0  0  0  0  0  0  0  0  0
    0.2903   -1.0868    1.1167 H   0  0  0  0  0  0  0  0  0  0  0  0
    0.1434   -1.7771   -0.4930 H   0  0  0  0  0  0  0  0  0  0  0  0
   -0.8486    0.3602   -1.3393 H   0  0  0  0  0  0  0  0  0  0  0  0
   -0.7508    1.0490    0.3067 H   0  0  0  0  0  0  0  0  0  0  0  0
   -4.7364   -0.8661   -0.4767 H   0  0  0  0  0  0  0  0  0  0  0  0
   -4.5852   -0.1883    1.1714 H   0  0  0  0  0  0  0  0  0  0  0  0
   -6.4869    0.8640   -0.0573 H   0  0  0  0  0  0  0  0  0  0  0  0
   -5.2149    2.0602    0.2886 H   0  0  0  0  0  0  0  0  0  0  0  0
   -5.3636    1.3936   -1.3325 H   0  0  0  0  0  0  0  0  0  0  0  0
  1 11  1  0  0  0  0
  1 12  1  0  0  0  0
  2 11  2  0  0  0  0
  3  4  1  0  0  0  0
  3  5  1  0  0  0  0
  3  9  1  0  0  0  0
  3 14  1  0  0  0  0
  4  6  1  0  0  0  0
  4 15  1  0  0  0  0
  4 16  1  0  0  0  0
  5  7  1  0  0  0  0
  5 17  1  0  0  0  0
  5 18  1  0  0  0  0
  6  8  1  0  0  0  0
  6 19  1  0  0  0  0
  6 20  1  0  0  0  0
  7  8  1  0  0  0  0
  7 21  1  0  0  0  0
  7 22  1  0  0  0  0
  8 23  1  0  0  0  0
  8 24  1  0  0  0  0
  9 10  1  0  0  0  0
  9 25  1  0  0  0  0
  9 26  1  0  0  0  0
 10 11  1  0  0  0  0
 10 27  1  0  0  0  0
 10 28  1  0  0  0  0
 12 13  1  0  0  0  0
 12 29  1  0  0  0  0
 12 30  1  0  0  0  0
 13 31  1  0  0  0  0
 13 32  1  0  0  0  0
 13 33  1  0  0  0  0
M  END
> <PUBCHEM_COMPOUND_CID>
61466

> <PUBCHEM_CONFORMER_RMSD>
0.6

> <PUBCHEM_CONFORMER_DIVERSEORDER>
1
56
52
188
180
94
15
164
50
190
91
86
160
100
150
99
136
6
31
149
80
128
53
103
4
163
148
85
28
37
144
71
147
23
159
96
11
172
2
161
22
26
139
84
5
194
42
173
199
73
32
38
30
156
82
3
192
184
19
43
39
189
7
153
171
138
124
152
132
64
141
60
182
97
95
8
51
166
12
129
9
178
140
162
195
92
10
170
79
115
87
59
175
46
21
121
183
76
193
131
65
27
93
72
118
104
88
116
68
83
133
169
197
48
111
40
165
25
198
20
130
18
67
34
191
135
127
101
108
81
70
174
75
107
102
185
29
61
137
142
176
125
154
17
44
105
151
98
117
57
157
69
168
122
181
177
47
187
134
24
145
89
123
66
54
120
112
110
55
114
35
186
45
41
126
179
14
74
143
113
90
109
33
16
119
58
49
78
77
155
158
106
196
167
62
36
13
63
146

> <PUBCHEM_MMFF94_PARTIAL_CHARGES>
5
1 -0.43
10 0.06
11 0.66
12 0.28
2 -0.57

> <PUBCHEM_EFFECTIVE_ROTOR_COUNT>
6.2

> <PUBCHEM_PHARMACOPHORE_FEATURES>
2
1 2 acceptor
6 3 4 5 6 7 8 rings

> <PUBCHEM_HEAVY_ATOM_COUNT>
13

> <PUBCHEM_ATOM_DEF_STEREO_COUNT>
0

> <PUBCHEM_ATOM_UDEF_STEREO_COUNT>
0

> <PUBCHEM_BOND_DEF_STEREO_COUNT>
0

> <PUBCHEM_BOND_UDEF_STEREO_COUNT>
0

> <PUBCHEM_ISOTOPIC_ATOM_COUNT>
0

> <PUBCHEM_COMPONENT_COUNT>
1

> <PUBCHEM_CACTVS_TAUTO_COUNT>
1

> <PUBCHEM_CONFORMER_ID>
0000F01A00000001

> <PUBCHEM_MMFF94_ENERGY>
7.7794

> <PUBCHEM_FEATURE_SELFOVERLAP>
10.148

> <PUBCHEM_SHAPE_FINGERPRINT>
10014705 185 18408320008385406901
10608611 8 18338233872728966904
11471102 20 18344146990686878308
12500047 106 18409728508118277811
12932764 1 17023170652390856606
13081056 2 18409448072676549213
13675066 3 17967821552415925731
13922767 16 18342455954545829472
14252887 29 12613029462042205808
14325111 11 18339361971732872586
15242439 84 18410579474415275566
15375358 24 18410576188612404127
17834072 33 18130783490794189951
17834072 8 18272658930813636548
17834076 25 18259704497225314703
18186145 218 18186513319594717974
200 152 17418091018684272431
20279233 1 18409736170207941586
20606313 2 18272089409523445656
20645477 56 18259704501921169677
20645477 70 18131072593464409742
212847 35 18334296465945275852
22485316 2 18411980273413884647
23402539 116 18342450435792487717
23402655 69 18201719574181372100
23559900 14 18412263922092472458
351380 180 18342454833491033725
3545911 37 18411140250914615993
4047638 21 18409730655786184778
42788 4 18411981347667047805
449060 50 18408042931217914965
5104073 3 18409166648933309891
522135 26 18342176648606796054
633830 44 18187642556986672222
69090 78 18411696599841244895
77779 3 18411139164388227303
8272917 22 18059580130922563646

> <PUBCHEM_SHAPE_MULTIPOLES>
255.8
10.9
1.44
0.69
9.52
0.1
0
2.99
0.48
-0.56
-0.1
-0.06
-0.02
0.6

> <PUBCHEM_SHAPE_SELFOVERLAP>
491.664

> <PUBCHEM_SHAPE_VOLUME>
155.1

> <PUBCHEM_COORDINATE_TYPE>
2
5
10

$$$$
