61503
  -OEChem-11232109253D

 12 11  0     1  0  0  0  0  0999 V2000
   -1.3910   -1.1177    0.1830 O   0  0  0  0  0  0  0  0  0  0  0  0
    1.4821    1.0410    0.2494 O   0  0  0  0  0  0  0  0  0  0  0  0
    1.2275   -1.1171   -0.4061 O   0  0  0  0  0  0  0  0  0  0  0  0
   -0.7091    0.1081    0.4023 C   0  0  2  0  0  0  0  0  0  0  0  0
   -1.3584    1.1687   -0.4696 C   0  0  0  0  0  0  0  0  0  0  0  0
    0.7489   -0.0829    0.0411 C   0  0  0  0  0  0  0  0  0  0  0  0
   -0.7771    0.3549    1.4667 H   0  0  0  0  0  0  0  0  0  0  0  0
   -1.2762    0.9076   -1.5309 H   0  0  0  0  0  0  0  0  0  0  0  0
   -0.8944    2.1491   -0.3244 H   0  0  0  0  0  0  0  0  0  0  0  0
   -2.4270    1.2531   -0.2446 H   0  0  0  0  0  0  0  0  0  0  0  0
   -2.2883   -1.0228    0.5458 H   0  0  0  0  0  0  0  0  0  0  0  0
    2.4235    0.9141    0.0044 H   0  0  0  0  0  0  0  0  0  0  0  0
  1  4  1  0  0  0  0
  1 11  1  0  0  0  0
  2  6  1  0  0  0  0
  2 12  1  0  0  0  0
  3  6  2  0  0  0  0
  4  5  1  0  0  0  0
  4  6  1  0  0  0  0
  4  7  1  0  0  0  0
  5  8  1  0  0  0  0
  5  9  1  0  0  0  0
  5 10  1  0  0  0  0
M  END
> <PUBCHEM_COMPOUND_CID>
61503

> <PUBCHEM_CONFORMER_RMSD>
0.4

> <PUBCHEM_CONFORMER_DIVERSEORDER>
1
3
2

> <PUBCHEM_MMFF94_PARTIAL_CHARGES>
7
1 -0.68
11 0.4
12 0.5
2 -0.65
3 -0.57
4 0.34
6 0.66

> <PUBCHEM_EFFECTIVE_ROTOR_COUNT>
1

> <PUBCHEM_PHARMACOPHORE_FEATURES>
5
1 1 acceptor
1 1 donor
1 2 acceptor
1 3 acceptor
3 2 3 6 anion

> <PUBCHEM_HEAVY_ATOM_COUNT>
6

> <PUBCHEM_ATOM_DEF_STEREO_COUNT>
1

> <PUBCHEM_ATOM_UDEF_STEREO_COUNT>
0

> <PUBCHEM_BOND_DEF_STEREO_COUNT>
0

> <PUBCHEM_BOND_UDEF_STEREO_COUNT>
0

> <PUBCHEM_ISOTOPIC_ATOM_COUNT>
0

> <PUBCHEM_COMPONENT_COUNT>
1

> <PUBCHEM_CACTVS_TAUTO_COUNT>
1

> <PUBCHEM_CONFORMER_ID>
0000F03F00000001

> <PUBCHEM_MMFF94_ENERGY>
3.6457

> <PUBCHEM_FEATURE_SELFOVERLAP>
25.438

> <PUBCHEM_SHAPE_FINGERPRINT>
139733 1 9870931038084662067
16714656 1 17834403697481718612
20096714 4 18191021197078216901
21015797 1 9006791868508319642
21040471 1 18117273653636716317
24536 1 18131347466775251016
29004967 10 18045510973718059595
5943 1 15314061860888346889

> <PUBCHEM_SHAPE_MULTIPOLES>
105.87
1.92
1.31
0.67
0
0.04
-0.01
-0.18
-0.17
0.1
-0.03
0.04
-0.02
0.29

> <PUBCHEM_SHAPE_SELFOVERLAP>
193.006

> <PUBCHEM_SHAPE_VOLUME>
67.9

> <PUBCHEM_COORDINATE_TYPE>
2
5
10

$$$$
