61584
  -OEChem-11232108593D

 30 29  0     0  0  0  0  0  0999 V2000
    6.4527   -0.8360    0.2757 O   0  0  0  0  0  0  0  0  0  0  0  0
   -3.0752    0.4977    0.2100 C   0  0  0  0  0  0  0  0  0  0  0  0
   -4.1953   -0.4515   -0.2269 C   0  0  0  0  0  0  0  0  0  0  0  0
   -1.6763    0.1723   -0.3236 C   0  0  0  0  0  0  0  0  0  0  0  0
   -5.5559   -0.1087    0.3804 C   0  0  0  0  0  0  0  0  0  0  0  0
   -0.5917    1.1185    0.1959 C   0  0  0  0  0  0  0  0  0  0  0  0
   -6.6326   -1.0745   -0.0907 C   0  0  0  0  0  0  0  0  0  0  0  0
    0.7407    0.8089   -0.4263 C   0  0  0  0  0  0  0  0  0  0  0  0
    1.8212    0.4391    0.2775 C   0  0  0  0  0  0  0  0  0  0  0  0
    3.1004    0.1490   -0.3308 C   0  0  0  0  0  0  0  0  0  0  0  0
    4.1723   -0.2192    0.3816 C   0  0  0  0  0  0  0  0  0  0  0  0
    5.4396   -0.4955   -0.3229 C   0  0  0  0  0  0  0  0  0  0  0  0
   -3.3397    1.5182   -0.0952 H   0  0  0  0  0  0  0  0  0  0  0  0
   -3.0349    0.5049    1.3069 H   0  0  0  0  0  0  0  0  0  0  0  0
   -3.9223   -1.4762    0.0543 H   0  0  0  0  0  0  0  0  0  0  0  0
   -4.2686   -0.4334   -1.3213 H   0  0  0  0  0  0  0  0  0  0  0  0
   -1.4209   -0.8591   -0.0479 H   0  0  0  0  0  0  0  0  0  0  0  0
   -1.7037    0.2053   -1.4205 H   0  0  0  0  0  0  0  0  0  0  0  0
   -5.4933   -0.1421    1.4742 H   0  0  0  0  0  0  0  0  0  0  0  0
   -5.8395    0.9127    0.1019 H   0  0  0  0  0  0  0  0  0  0  0  0
   -0.8556    2.1538   -0.0505 H   0  0  0  0  0  0  0  0  0  0  0  0
   -0.5405    1.0542    1.2895 H   0  0  0  0  0  0  0  0  0  0  0  0
   -6.3921   -2.1022    0.1998 H   0  0  0  0  0  0  0  0  0  0  0  0
   -6.7407   -1.0410   -1.1795 H   0  0  0  0  0  0  0  0  0  0  0  0
   -7.5974   -0.8124    0.3547 H   0  0  0  0  0  0  0  0  0  0  0  0
    0.8064    0.9095   -1.5076 H   0  0  0  0  0  0  0  0  0  0  0  0
    1.7503    0.3460    1.3583 H   0  0  0  0  0  0  0  0  0  0  0  0
    3.1655    0.2422   -1.4122 H   0  0  0  0  0  0  0  0  0  0  0  0
    4.1574   -0.3259    1.4602 H   0  0  0  0  0  0  0  0  0  0  0  0
    5.4251   -0.3788   -1.4195 H   0  0  0  0  0  0  0  0  0  0  0  0
  1 12  2  0  0  0  0
  2  3  1  0  0  0  0
  2  4  1  0  0  0  0
  2 13  1  0  0  0  0
  2 14  1  0  0  0  0
  3  5  1  0  0  0  0
  3 15  1  0  0  0  0
  3 16  1  0  0  0  0
  4  6  1  0  0  0  0
  4 17  1  0  0  0  0
  4 18  1  0  0  0  0
  5  7  1  0  0  0  0
  5 19  1  0  0  0  0
  5 20  1  0  0  0  0
  6  8  1  0  0  0  0
  6 21  1  0  0  0  0
  6 22  1  0  0  0  0
  7 23  1  0  0  0  0
  7 24  1  0  0  0  0
  7 25  1  0  0  0  0
  8  9  2  3  0  0  0
  8 26  1  0  0  0  0
  9 10  1  0  0  0  0
  9 27  1  0  0  0  0
 10 11  2  3  0  0  0
 10 28  1  0  0  0  0
 11 12  1  0  0  0  0
 11 29  1  0  0  0  0
 12 30  1  0  0  0  0
M  END
> <PUBCHEM_COMPOUND_CID>
61584

> <PUBCHEM_CONFORMER_RMSD>
0.8

> <PUBCHEM_CONFORMER_DIVERSEORDER>
1
41
19
7
18
42
16
31
43
6
11
20
33
9
14
37
23
10
3
29
13
35
28
44
32
46
45
26
40
22
8
30
4
2
34
5
39
25
36
12
21
38
24
15
17
27

> <PUBCHEM_MMFF94_PARTIAL_CHARGES>
12
1 -0.57
10 -0.15
11 -0.14
12 0.5
26 0.15
27 0.15
28 0.15
29 0.15
30 0.06
6 0.14
8 -0.29
9 -0.15

> <PUBCHEM_EFFECTIVE_ROTOR_COUNT>
7

> <PUBCHEM_PHARMACOPHORE_FEATURES>
4
1 1 acceptor
1 7 hydrophobe
3 2 3 5 hydrophobe
3 4 6 8 hydrophobe

> <PUBCHEM_HEAVY_ATOM_COUNT>
12

> <PUBCHEM_ATOM_DEF_STEREO_COUNT>
0

> <PUBCHEM_ATOM_UDEF_STEREO_COUNT>
0

> <PUBCHEM_BOND_DEF_STEREO_COUNT>
0

> <PUBCHEM_BOND_UDEF_STEREO_COUNT>
2

> <PUBCHEM_ISOTOPIC_ATOM_COUNT>
0

> <PUBCHEM_COMPONENT_COUNT>
1

> <PUBCHEM_CACTVS_TAUTO_COUNT>
1

> <PUBCHEM_CONFORMER_ID>
0000F09000000001

> <PUBCHEM_MMFF94_ENERGY>
1.8753

> <PUBCHEM_FEATURE_SELFOVERLAP>
20.309

> <PUBCHEM_SHAPE_FINGERPRINT>
100836 57 10231754500422561496
10354089 29 13830132793483611394
114248 4 15068341215527462844
117890 112 11167947956896176611
12714333 28 11241969282711313277
13288520 33 18334858316666585733
13964095 4 17531240639787029437
1420 363 18201721751676991614
14729087 3 12247687046038442267
15048467 5 9439405726816792467
15242439 84 14779270825440517565
15501527 16 9943807790102971925
15690457 1 17917705847346526663
17834072 8 16008750220977517627
17834076 25 18410293609686374759
187816 3 15574434314617412365
20281389 69 10879994644811140866
20526848 3 9295292754991891375
20605781 2 9151174250821065609
20645477 56 9079114453865984417
20645477 70 14418402249293551992
20735858 18 16559033805264161071
20767249 13 18409449184814369005
20767249 213 10447926174302953039
21130983 4 11095883782557037546
22224240 67 16056873637370209606
23035841 295 18334012791634099363
23402539 116 18114461175902223261
23402655 69 12396294863656482129
351380 3 18408037416205847099
42788 4 18410575089169244173

> <PUBCHEM_SHAPE_MULTIPOLES>
241.09
17.26
1
0.7
1.83
0.03
0.01
-8.2
-0.91
0.25
0
-0.04
0.01
-0.18

> <PUBCHEM_SHAPE_SELFOVERLAP>
441.156

> <PUBCHEM_SHAPE_VOLUME>
152.6

> <PUBCHEM_COORDINATE_TYPE>
2
5
10

$$$$
