61586
  -OEChem-11232109133D

 27 27  0     0  0  0  0  0  0999 V2000
    2.7065    0.1174   -0.1721 O   0  0  0  0  0  0  0  0  0  0  0  0
   -2.5429    1.4875    0.4911 O   0  0  0  0  0  0  0  0  0  0  0  0
   -3.4566   -0.8916   -0.6174 O   0  0  0  0  0  0  0  0  0  0  0  0
    0.5186   -0.5098    0.5176 C   0  0  0  0  0  0  0  0  0  0  0  0
    1.9471   -0.3768    0.9244 C   0  0  0  0  0  0  0  0  0  0  0  0
   -0.3587    0.5603    0.6932 C   0  0  0  0  0  0  0  0  0  0  0  0
    0.0596   -1.7041   -0.0380 C   0  0  0  0  0  0  0  0  0  0  0  0
   -1.6950    0.4362    0.3131 C   0  0  0  0  0  0  0  0  0  0  0  0
   -2.1541   -0.7581   -0.2423 C   0  0  0  0  0  0  0  0  0  0  0  0
   -1.2767   -1.8282   -0.4178 C   0  0  0  0  0  0  0  0  0  0  0  0
    4.0785    0.2616    0.1677 C   0  0  0  0  0  0  0  0  0  0  0  0
    4.8317    0.7890   -1.0348 C   0  0  0  0  0  0  0  0  0  0  0  0
   -2.6580    2.4166   -0.5848 C   0  0  0  0  0  0  0  0  0  0  0  0
    2.0356    0.3068    1.7783 H   0  0  0  0  0  0  0  0  0  0  0  0
    2.3418   -1.3497    1.2435 H   0  0  0  0  0  0  0  0  0  0  0  0
   -0.0059    1.4939    1.1248 H   0  0  0  0  0  0  0  0  0  0  0  0
    0.7338   -2.5443   -0.1818 H   0  0  0  0  0  0  0  0  0  0  0  0
   -1.6210   -2.7641   -0.8499 H   0  0  0  0  0  0  0  0  0  0  0  0
    4.1819    0.9625    1.0036 H   0  0  0  0  0  0  0  0  0  0  0  0
    4.4911   -0.7092    0.4643 H   0  0  0  0  0  0  0  0  0  0  0  0
    5.8943    0.9123   -0.8076 H   0  0  0  0  0  0  0  0  0  0  0  0
    4.7290    0.1056   -1.8843 H   0  0  0  0  0  0  0  0  0  0  0  0
    4.4238    1.7544   -1.3522 H   0  0  0  0  0  0  0  0  0  0  0  0
   -3.5918   -1.7834   -0.9812 H   0  0  0  0  0  0  0  0  0  0  0  0
   -3.0275    1.9186   -1.4868 H   0  0  0  0  0  0  0  0  0  0  0  0
   -1.6924    2.8912   -0.7862 H   0  0  0  0  0  0  0  0  0  0  0  0
   -3.3741    3.1902   -0.2944 H   0  0  0  0  0  0  0  0  0  0  0  0
  1  5  1  0  0  0  0
  1 11  1  0  0  0  0
  2  8  1  0  0  0  0
  2 13  1  0  0  0  0
  3  9  1  0  0  0  0
  3 24  1  0  0  0  0
  4  5  1  0  0  0  0
  4  6  2  0  0  0  0
  4  7  1  0  0  0  0
  5 14  1  0  0  0  0
  5 15  1  0  0  0  0
  6  8  1  0  0  0  0
  6 16  1  0  0  0  0
  7 10  2  0  0  0  0
  7 17  1  0  0  0  0
  8  9  2  0  0  0  0
  9 10  1  0  0  0  0
 10 18  1  0  0  0  0
 11 12  1  0  0  0  0
 11 19  1  0  0  0  0
 11 20  1  0  0  0  0
 12 21  1  0  0  0  0
 12 22  1  0  0  0  0
 12 23  1  0  0  0  0
 13 25  1  0  0  0  0
 13 26  1  0  0  0  0
 13 27  1  0  0  0  0
M  END
> <PUBCHEM_COMPOUND_CID>
61586

> <PUBCHEM_CONFORMER_RMSD>
0.6

> <PUBCHEM_CONFORMER_DIVERSEORDER>
1
9
20
17
11
5
12
14
18
13
15
16
8
4
7
10
19
2
6
3
22
21

> <PUBCHEM_MMFF94_PARTIAL_CHARGES>
16
1 -0.56
10 -0.15
11 0.28
13 0.28
16 0.15
17 0.15
18 0.15
2 -0.36
24 0.45
3 -0.53
4 -0.14
5 0.42
6 -0.15
7 -0.15
8 0.08
9 0.08

> <PUBCHEM_EFFECTIVE_ROTOR_COUNT>
4

> <PUBCHEM_PHARMACOPHORE_FEATURES>
4
1 1 acceptor
1 2 acceptor
1 3 donor
6 4 6 7 8 9 10 rings

> <PUBCHEM_HEAVY_ATOM_COUNT>
13

> <PUBCHEM_ATOM_DEF_STEREO_COUNT>
0

> <PUBCHEM_ATOM_UDEF_STEREO_COUNT>
0

> <PUBCHEM_BOND_DEF_STEREO_COUNT>
0

> <PUBCHEM_BOND_UDEF_STEREO_COUNT>
0

> <PUBCHEM_ISOTOPIC_ATOM_COUNT>
0

> <PUBCHEM_COMPONENT_COUNT>
1

> <PUBCHEM_CACTVS_TAUTO_COUNT>
3

> <PUBCHEM_CONFORMER_ID>
0000F09200000001

> <PUBCHEM_MMFF94_ENERGY>
38.6618

> <PUBCHEM_FEATURE_SELFOVERLAP>
20.297

> <PUBCHEM_SHAPE_FINGERPRINT>
11206711 2 18271789234206224941
11769659 78 11095868372393591184
12138202 97 18060135414490957438
12186901 62 18272374169759643886
12251169 10 8718557111901675890
13024252 1 17895473725810282211
13380535 21 18129102221546000035
14123260 362 17822587104653185748
14993402 34 18334852852840379358
15775835 57 18334297526617607528
16945 1 18269817839838393907
17834072 32 18335421205821156204
18186145 218 17846779598690263936
1986462 14 18059861670755877684
20281475 54 10952054446804942528
20645476 183 18188204407244226070
20645477 56 18342742935792095496
20711983 171 18410009905990915724
20871999 31 18272931634929272700
21501502 16 18268137661496020995
22926399 37 17603862351149614062
23402539 116 18342167916796144687
23557571 272 18059585697553476900
23559900 14 17917711284911695042
2748010 2 18128251190956374535
4175511 318 18202002140127248892
53812653 8 18410004442613530979
559249 180 18339640028538595034

> <PUBCHEM_SHAPE_MULTIPOLES>
249.93
7.08
1.95
0.91
8.92
0.51
-0.01
2.85
-2.14
-2
-0.39
0.31
0.07
-0.49

> <PUBCHEM_SHAPE_SELFOVERLAP>
505.346

> <PUBCHEM_SHAPE_VOLUME>
147.6

> <PUBCHEM_COORDINATE_TYPE>
2
5
10

$$$$
