61585
  -OEChem-11232109433D

 42 43  0     0  0  0  0  0  0999 V2000
   -1.6344   -3.2443   -0.5658 O   0  0  0  0  0  0  0  0  0  0  0  0
   -2.0885    1.7796    0.0414 C   0  0  0  0  0  0  0  0  0  0  0  0
   -3.1509    0.7472    0.5060 C   0  0  0  0  0  0  0  0  0  0  0  0
   -0.8512    0.9118    0.0354 C   0  0  0  0  0  0  0  0  0  0  0  0
   -2.6806   -0.6299    0.0138 C   0  0  0  0  0  0  0  0  0  0  0  0
   -1.1959   -0.4478    0.0265 C   0  0  0  0  0  0  0  0  0  0  0  0
   -2.0047    2.9529    1.0209 C   0  0  0  0  0  0  0  0  0  0  0  0
   -2.3912    2.2902   -1.3737 C   0  0  0  0  0  0  0  0  0  0  0  0
    0.4805    1.3010    0.0122 C   0  0  0  0  0  0  0  0  0  0  0  0
    1.4659    0.3113   -0.0158 C   0  0  0  0  0  0  0  0  0  0  0  0
    2.9061    0.7024   -0.0388 C   0  0  0  0  0  0  0  0  0  0  0  0
   -0.2250   -1.4353   -0.0136 C   0  0  0  0  0  0  0  0  0  0  0  0
    1.1157   -1.0471   -0.0293 C   0  0  0  0  0  0  0  0  0  0  0  0
    3.6158    0.1678   -1.3208 C   0  0  0  0  0  0  0  0  0  0  0  0
    3.6672    0.1278    1.1956 C   0  0  0  0  0  0  0  0  0  0  0  0
    3.1830    2.2420   -0.0200 C   0  0  0  0  0  0  0  0  0  0  0  0
   -0.5735   -2.8466   -0.0439 C   0  0  0  0  0  0  0  0  0  0  0  0
    0.3617   -3.8830    0.5699 C   0  0  0  0  0  0  0  0  0  0  0  0
   -4.1606    0.9834    0.1525 H   0  0  0  0  0  0  0  0  0  0  0  0
   -3.1972    0.7243    1.6046 H   0  0  0  0  0  0  0  0  0  0  0  0
   -3.0340   -0.8287   -1.0030 H   0  0  0  0  0  0  0  0  0  0  0  0
   -3.0234   -1.4138    0.6950 H   0  0  0  0  0  0  0  0  0  0  0  0
   -1.7353    2.6172    2.0290 H   0  0  0  0  0  0  0  0  0  0  0  0
   -1.2499    3.6837    0.7090 H   0  0  0  0  0  0  0  0  0  0  0  0
   -2.9655    3.4756    1.0873 H   0  0  0  0  0  0  0  0  0  0  0  0
   -3.3335    2.8492   -1.3946 H   0  0  0  0  0  0  0  0  0  0  0  0
   -1.5981    2.9573   -1.7315 H   0  0  0  0  0  0  0  0  0  0  0  0
   -2.4755    1.4707   -2.0967 H   0  0  0  0  0  0  0  0  0  0  0  0
    0.7045    2.3603    0.0091 H   0  0  0  0  0  0  0  0  0  0  0  0
    1.8957   -1.8026   -0.0705 H   0  0  0  0  0  0  0  0  0  0  0  0
    3.1221    0.5440   -2.2245 H   0  0  0  0  0  0  0  0  0  0  0  0
    3.6058   -0.9265   -1.3701 H   0  0  0  0  0  0  0  0  0  0  0  0
    4.6654    0.4822   -1.3554 H   0  0  0  0  0  0  0  0  0  0  0  0
    3.6558   -0.9675    1.2116 H   0  0  0  0  0  0  0  0  0  0  0  0
    4.7181    0.4394    1.1962 H   0  0  0  0  0  0  0  0  0  0  0  0
    3.2122    0.4768    2.1301 H   0  0  0  0  0  0  0  0  0  0  0  0
    2.7795    2.7120    0.8845 H   0  0  0  0  0  0  0  0  0  0  0  0
    2.7499    2.7394   -0.8957 H   0  0  0  0  0  0  0  0  0  0  0  0
    4.2600    2.4493   -0.0350 H   0  0  0  0  0  0  0  0  0  0  0  0
    0.8875   -3.4682    1.4342 H   0  0  0  0  0  0  0  0  0  0  0  0
    1.0763   -4.2230   -0.1837 H   0  0  0  0  0  0  0  0  0  0  0  0
   -0.2302   -4.7329    0.9226 H   0  0  0  0  0  0  0  0  0  0  0  0
  1 17  2  0  0  0  0
  2  3  1  0  0  0  0
  2  4  1  0  0  0  0
  2  7  1  0  0  0  0
  2  8  1  0  0  0  0
  3  5  1  0  0  0  0
  3 19  1  0  0  0  0
  3 20  1  0  0  0  0
  4  6  1  0  0  0  0
  4  9  2  0  0  0  0
  5  6  1  0  0  0  0
  5 21  1  0  0  0  0
  5 22  1  0  0  0  0
  6 12  2  0  0  0  0
  7 23  1  0  0  0  0
  7 24  1  0  0  0  0
  7 25  1  0  0  0  0
  8 26  1  0  0  0  0
  8 27  1  0  0  0  0
  8 28  1  0  0  0  0
  9 10  1  0  0  0  0
  9 29  1  0  0  0  0
 10 11  1  0  0  0  0
 10 13  2  0  0  0  0
 11 14  1  0  0  0  0
 11 15  1  0  0  0  0
 11 16  1  0  0  0  0
 12 13  1  0  0  0  0
 12 17  1  0  0  0  0
 13 30  1  0  0  0  0
 14 31  1  0  0  0  0
 14 32  1  0  0  0  0
 14 33  1  0  0  0  0
 15 34  1  0  0  0  0
 15 35  1  0  0  0  0
 15 36  1  0  0  0  0
 16 37  1  0  0  0  0
 16 38  1  0  0  0  0
 16 39  1  0  0  0  0
 17 18  1  0  0  0  0
 18 40  1  0  0  0  0
 18 41  1  0  0  0  0
 18 42  1  0  0  0  0
M  END
> <PUBCHEM_COMPOUND_CID>
61585

> <PUBCHEM_CONFORMER_RMSD>
0.6

> <PUBCHEM_CONFORMER_DIVERSEORDER>
1
5
3
4
2
6

> <PUBCHEM_MMFF94_PARTIAL_CHARGES>
14
1 -0.57
10 -0.14
11 0.14
12 0.09
13 -0.15
17 0.42
18 0.06
2 0.14
29 0.15
30 0.15
4 -0.14
5 0.14
6 -0.14
9 -0.15

> <PUBCHEM_EFFECTIVE_ROTOR_COUNT>
2.6

> <PUBCHEM_PHARMACOPHORE_FEATURES>
5
1 1 acceptor
3 2 7 8 hydrophobe
4 11 14 15 16 hydrophobe
5 2 3 4 5 6 rings
6 4 6 9 10 12 13 rings

> <PUBCHEM_HEAVY_ATOM_COUNT>
18

> <PUBCHEM_ATOM_DEF_STEREO_COUNT>
0

> <PUBCHEM_ATOM_UDEF_STEREO_COUNT>
0

> <PUBCHEM_BOND_DEF_STEREO_COUNT>
0

> <PUBCHEM_BOND_UDEF_STEREO_COUNT>
0

> <PUBCHEM_ISOTOPIC_ATOM_COUNT>
0

> <PUBCHEM_COMPONENT_COUNT>
1

> <PUBCHEM_CACTVS_TAUTO_COUNT>
2

> <PUBCHEM_CONFORMER_ID>
0000F09100000001

> <PUBCHEM_MMFF94_ENERGY>
66.1968

> <PUBCHEM_FEATURE_SELFOVERLAP>
25.453

> <PUBCHEM_SHAPE_FINGERPRINT>
10967382 1 17618223910001682538
1100329 8 17979077407805967155
11322862 65 18340218460930948278
11578080 2 12821584720013657234
11680986 33 17832700180234188491
12173636 292 18411703175051423661
12553582 1 17617664696997499498
12592029 89 18265059041606580395
12730499 353 18192432966388924285
12788726 201 18121217838269353290
13140716 1 18122626325253790466
13538477 17 18189329233735642730
13583140 156 17168132460046368872
14022347 108 17830192533609151834
14178342 30 18196369225830720233
14614273 12 18261107418671270621
14648413 74 17832147117479949513
14790565 3 18339375166273936865
15042514 8 18264773331702971003
15309172 13 18410302384505332633
15490181 7 18410295774403061799
15669948 3 18264209278322080428
16752209 62 18336533988839139735
16945 1 18411982498227718124
18186145 218 18272093742992765348
18785283 64 17616835240128497697
19591789 44 18338809909210706566
19868273 325 17906174305899279118
20028762 73 17841446031363055495
20510252 161 18343024431784940713
20645476 183 18041293135581807254
20671657 1 17908987599725148377
21029758 11 17765429138443392095
21160774 45 18337103579281427941
21501502 16 17979356361557558681
21524375 3 18261958444506869178
23184049 29 18122620823806898304
2334 1 18338237055051702942
23366157 5 17682129780803374443
23402539 116 18199177576455186815
23419403 2 16907564675822019183
23557571 272 17981619470015022220
238 59 17466472669753846853
257057 1 17619054470777675310
2748010 2 18265623078160320935
305870 269 18194117421742672634
3071541 12 17835525920627231594
3071541 158 17252871554879048206
3071541 236 18337662113729010866
3091708 16 9125974552445793763
350125 39 18266468602686548083
352729 6 18410575123323325678
43471831 8 18337111159645802995
458136 41 18049467870963184465
54173680 148 18122347045148013346
58807428 26 18266453218192815690
633830 44 18059577923409892276
7097593 13 18189313759253416434
7364860 26 17907013971989887843
74978 22 18410575111082015036
81228 2 18122629619536008226
84936 182 17769079160180519777
9709674 26 18200882889140945438

> <PUBCHEM_SHAPE_MULTIPOLES>
364.56
5.39
4.01
1
3.02
3.73
0.1
-3.58
0.04
-1.26
-0.24
0.19
-0.36
-0.21

> <PUBCHEM_SHAPE_SELFOVERLAP>
770.839

> <PUBCHEM_SHAPE_VOLUME>
210.5

> <PUBCHEM_COORDINATE_TYPE>
2
5
10

$$$$
