61634
  -OEChem-11232109133D

 19 19  0     1  0  0  0  0  0999 V2000
    1.3913    1.7358   -0.1075 O   0  0  0  0  0  0  0  0  0  0  0  0
   -1.3925    1.7354   -0.1045 O   0  0  0  0  0  0  0  0  0  0  0  0
    0.0004   -1.5042    0.0214 C   0  0  0  0  0  0  0  0  0  0  0  0
    1.2331   -0.6634    0.3980 C   0  0  2  0  0  0  0  0  0  0  0  0
   -1.2330   -0.6642    0.3974 C   0  0  1  0  0  0  0  0  0  0  0  0
    0.7475    0.7258    0.0832 C   0  0  0  0  0  0  0  0  0  0  0  0
   -0.7480    0.7256    0.0838 C   0  0  0  0  0  0  0  0  0  0  0  0
    2.4731   -1.0449   -0.3851 C   0  0  0  0  0  0  0  0  0  0  0  0
   -2.4720   -1.0459   -0.3868 C   0  0  0  0  0  0  0  0  0  0  0  0
    0.0008   -1.7164   -1.0564 H   0  0  0  0  0  0  0  0  0  0  0  0
    0.0006   -2.4674    0.5430 H   0  0  0  0  0  0  0  0  0  0  0  0
    1.4168   -0.7240    1.4768 H   0  0  0  0  0  0  0  0  0  0  0  0
   -1.4175   -0.7254    1.4759 H   0  0  0  0  0  0  0  0  0  0  0  0
    3.3216   -0.4164   -0.0943 H   0  0  0  0  0  0  0  0  0  0  0  0
    2.7433   -2.0895   -0.2017 H   0  0  0  0  0  0  0  0  0  0  0  0
    2.3246   -0.9120   -1.4624 H   0  0  0  0  0  0  0  0  0  0  0  0
   -2.7418   -2.0909   -0.2043 H   0  0  0  0  0  0  0  0  0  0  0  0
   -3.3211   -0.4181   -0.0963 H   0  0  0  0  0  0  0  0  0  0  0  0
   -2.3228   -0.9123   -1.4639 H   0  0  0  0  0  0  0  0  0  0  0  0
  1  6  2  0  0  0  0
  2  7  2  0  0  0  0
  3  4  1  0  0  0  0
  3  5  1  0  0  0  0
  3 10  1  0  0  0  0
  3 11  1  0  0  0  0
  4  6  1  0  0  0  0
  4  8  1  0  0  0  0
  4 12  1  0  0  0  0
  5  7  1  0  0  0  0
  5  9  1  0  0  0  0
  5 13  1  0  0  0  0
  6  7  1  0  0  0  0
  8 14  1  0  0  0  0
  8 15  1  0  0  0  0
  8 16  1  0  0  0  0
  9 17  1  0  0  0  0
  9 18  1  0  0  0  0
  9 19  1  0  0  0  0
M  END
> <PUBCHEM_COMPOUND_CID>
61634

> <PUBCHEM_CONFORMER_RMSD>
0.4

> <PUBCHEM_CONFORMER_DIVERSEORDER>
3
1
2

> <PUBCHEM_MMFF94_PARTIAL_CHARGES>
6
1 -0.57
2 -0.57
4 0.06
5 0.06
6 0.51
7 0.51

> <PUBCHEM_EFFECTIVE_ROTOR_COUNT>
0.6

> <PUBCHEM_PHARMACOPHORE_FEATURES>
3
1 1 acceptor
1 2 acceptor
5 3 4 5 6 7 rings

> <PUBCHEM_HEAVY_ATOM_COUNT>
9

> <PUBCHEM_ATOM_DEF_STEREO_COUNT>
0

> <PUBCHEM_ATOM_UDEF_STEREO_COUNT>
2

> <PUBCHEM_BOND_DEF_STEREO_COUNT>
0

> <PUBCHEM_BOND_UDEF_STEREO_COUNT>
0

> <PUBCHEM_ISOTOPIC_ATOM_COUNT>
0

> <PUBCHEM_COMPONENT_COUNT>
1

> <PUBCHEM_CACTVS_TAUTO_COUNT>
11

> <PUBCHEM_CONFORMER_ID>
0000F0C200000003

> <PUBCHEM_MMFF94_ENERGY>
10.5022

> <PUBCHEM_FEATURE_SELFOVERLAP>
15.227

> <PUBCHEM_SHAPE_FINGERPRINT>
11206711 2 18335984177254026351
12423570 1 17251447695995428426
14128692 85 18343587356084446582
16945 1 18408885139586459922
18185500 45 18119809110212450386
21040471 1 17833827170883213720
23552423 10 18334295391765556350
241688 4 18409166575908341704
2748010 2 18410006650099932117
29004967 10 18046347697750613843
5084963 1 18202563981657562138

> <PUBCHEM_SHAPE_MULTIPOLES>
173.48
2.87
1.85
0.67
0
0.56
0.01
-0.87
-0.44
0
-0.11
0
-0.09
0

> <PUBCHEM_SHAPE_SELFOVERLAP>
350.319

> <PUBCHEM_SHAPE_VOLUME>
104.1

> <PUBCHEM_COORDINATE_TYPE>
2
5
10

$$$$
