61631
  -OEChem-11232109083D

 30 29  0     0  0  0  0  0  0999 V2000
   -4.4832    0.6495   -0.0051 O   0  0  0  0  0  0  0  0  0  0  0  0
   -3.2609   -1.2994    0.1582 O   0  0  0  0  0  0  0  0  0  0  0  0
    2.6553    0.3439   -0.2400 C   0  0  0  0  0  0  0  0  0  0  0  0
    3.9653   -0.4230   -0.0353 C   0  0  0  0  0  0  0  0  0  0  0  0
    1.4309   -0.5725   -0.3280 C   0  0  0  0  0  0  0  0  0  0  0  0
    5.1540    0.5322    0.0761 C   0  0  0  0  0  0  0  0  0  0  0  0
    0.1451    0.1820   -0.5051 C   0  0  0  0  0  0  0  0  0  0  0  0
    6.4540   -0.2207    0.3093 C   0  0  0  0  0  0  0  0  0  0  0  0
   -0.8779    0.1246    0.3605 C   0  0  0  0  0  0  0  0  0  0  0  0
   -2.1605    0.8772    0.1847 C   0  0  0  0  0  0  0  0  0  0  0  0
   -3.3327   -0.0786    0.1191 C   0  0  0  0  0  0  0  0  0  0  0  0
   -5.6895   -0.1153   -0.0945 C   0  0  0  0  0  0  0  0  0  0  0  0
    2.7273    0.9448   -1.1557 H   0  0  0  0  0  0  0  0  0  0  0  0
    2.5182    1.0497    0.5894 H   0  0  0  0  0  0  0  0  0  0  0  0
    4.1213   -1.1130   -0.8733 H   0  0  0  0  0  0  0  0  0  0  0  0
    3.8943   -1.0302    0.8753 H   0  0  0  0  0  0  0  0  0  0  0  0
    1.5488   -1.2530   -1.1801 H   0  0  0  0  0  0  0  0  0  0  0  0
    1.3863   -1.2016    0.5697 H   0  0  0  0  0  0  0  0  0  0  0  0
    4.9929    1.2331    0.9033 H   0  0  0  0  0  0  0  0  0  0  0  0
    5.2409    1.1267   -0.8409 H   0  0  0  0  0  0  0  0  0  0  0  0
    0.0551    0.7918   -1.4006 H   0  0  0  0  0  0  0  0  0  0  0  0
    6.6618   -0.9096   -0.5157 H   0  0  0  0  0  0  0  0  0  0  0  0
    6.4114   -0.7991    1.2377 H   0  0  0  0  0  0  0  0  0  0  0  0
    7.2904    0.4812    0.3846 H   0  0  0  0  0  0  0  0  0  0  0  0
   -0.7817   -0.4820    1.2581 H   0  0  0  0  0  0  0  0  0  0  0  0
   -2.1490    1.4745   -0.7336 H   0  0  0  0  0  0  0  0  0  0  0  0
   -2.3003    1.5429    1.0431 H   0  0  0  0  0  0  0  0  0  0  0  0
   -5.8287   -0.7106    0.8130 H   0  0  0  0  0  0  0  0  0  0  0  0
   -5.6656   -0.7584   -0.9794 H   0  0  0  0  0  0  0  0  0  0  0  0
   -6.5272    0.5808   -0.1893 H   0  0  0  0  0  0  0  0  0  0  0  0
  1 11  1  0  0  0  0
  1 12  1  0  0  0  0
  2 11  2  0  0  0  0
  3  4  1  0  0  0  0
  3  5  1  0  0  0  0
  3 13  1  0  0  0  0
  3 14  1  0  0  0  0
  4  6  1  0  0  0  0
  4 15  1  0  0  0  0
  4 16  1  0  0  0  0
  5  7  1  0  0  0  0
  5 17  1  0  0  0  0
  5 18  1  0  0  0  0
  6  8  1  0  0  0  0
  6 19  1  0  0  0  0
  6 20  1  0  0  0  0
  7  9  2  3  0  0  0
  7 21  1  0  0  0  0
  8 22  1  0  0  0  0
  8 23  1  0  0  0  0
  8 24  1  0  0  0  0
  9 10  1  0  0  0  0
  9 25  1  0  0  0  0
 10 11  1  0  0  0  0
 10 26  1  0  0  0  0
 10 27  1  0  0  0  0
 12 28  1  0  0  0  0
 12 29  1  0  0  0  0
 12 30  1  0  0  0  0
M  END
> <PUBCHEM_COMPOUND_CID>
61631

> <PUBCHEM_CONFORMER_RMSD>
0.8

> <PUBCHEM_CONFORMER_DIVERSEORDER>
1
10
70
73
67
102
12
15
64
105
26
63
109
4
3
32
33
21
22
78
91
6
49
50
60
38
14
27
94
18
39
5
93
35
36
80
59
100
23
108
43
19
20
46
58
106
74
97
88
54
17
29
8
47
61
107
79
89
7
25
110
9
101
68
84
95
62
96
52
37
31
30
13
86
71
40
75
98
44
72
81
2
65
56
103
53
99
24
57
92
45
76
87
11
90
83
69
66
41
77
55
104
51
85
48
16
82
28
42
34

> <PUBCHEM_MMFF94_PARTIAL_CHARGES>
10
1 -0.43
10 0.2
11 0.66
12 0.28
2 -0.57
21 0.15
25 0.15
5 0.14
7 -0.29
9 -0.29

> <PUBCHEM_EFFECTIVE_ROTOR_COUNT>
7

> <PUBCHEM_PHARMACOPHORE_FEATURES>
3
1 2 acceptor
1 8 hydrophobe
5 3 4 5 6 7 hydrophobe

> <PUBCHEM_HEAVY_ATOM_COUNT>
12

> <PUBCHEM_ATOM_DEF_STEREO_COUNT>
0

> <PUBCHEM_ATOM_UDEF_STEREO_COUNT>
0

> <PUBCHEM_BOND_DEF_STEREO_COUNT>
0

> <PUBCHEM_BOND_UDEF_STEREO_COUNT>
1

> <PUBCHEM_ISOTOPIC_ATOM_COUNT>
0

> <PUBCHEM_COMPONENT_COUNT>
1

> <PUBCHEM_CACTVS_TAUTO_COUNT>
1

> <PUBCHEM_CONFORMER_ID>
0000F0BF00000001

> <PUBCHEM_MMFF94_ENERGY>
2.6688

> <PUBCHEM_FEATURE_SELFOVERLAP>
15.223

> <PUBCHEM_SHAPE_FINGERPRINT>
11401426 45 17967814950713503671
114248 4 9799691502362416524
12815109 37 17894067402961263460
13533116 47 17095794435446826968
14123238 8 13183021817609546048
1420 363 18059861666360787646
14251764 46 18412263939446057611
17834072 33 18260270784964508492
17834072 8 11169911693100344914
17834076 25 18259984872732588987
187816 3 14345794941800616612
20279233 1 18202574977185199207
20645477 70 16845021096111989118
20767249 13 18260267451510613533
20767249 213 17846215579506243816
22485316 2 18334012783128515122
23218964 4 11530478934790112836
23402539 116 18186798097448719703
42788 4 18410856559945855116
59345606 91 18202282489616851313
8209 1 18333449846365781949

> <PUBCHEM_SHAPE_MULTIPOLES>
235.22
14.91
0.89
0.66
6.65
0.07
0.01
0.29
-1.14
-0.32
-0.02
0.11
0
0.01

> <PUBCHEM_SHAPE_SELFOVERLAP>
430.815

> <PUBCHEM_SHAPE_VOLUME>
149.7

> <PUBCHEM_COORDINATE_TYPE>
2
5
10

$$$$
