61633
  -OEChem-11232109213D

 19 19  0     1  0  0  0  0  0999 V2000
   -1.5600    1.6114   -0.1513 O   0  0  0  0  0  0  0  0  0  0  0  0
   -2.3357   -1.0465    0.1398 O   0  0  0  0  0  0  0  0  0  0  0  0
    1.1696   -0.5922    0.3022 C   0  0  1  0  0  0  0  0  0  0  0  0
    0.7369    0.7552   -0.3226 C   0  0  1  0  0  0  0  0  0  0  0  0
    0.0414   -1.5955   -0.0037 C   0  0  0  0  0  0  0  0  0  0  0  0
   -0.7554    0.7040   -0.1335 C   0  0  0  0  0  0  0  0  0  0  0  0
   -1.1721   -0.7200    0.0396 C   0  0  0  0  0  0  0  0  0  0  0  0
    2.5140   -1.0792   -0.2219 C   0  0  0  0  0  0  0  0  0  0  0  0
    1.3613    1.9628    0.3515 C   0  0  0  0  0  0  0  0  0  0  0  0
    1.2399   -0.4797    1.3936 H   0  0  0  0  0  0  0  0  0  0  0  0
    0.9374    0.7674   -1.4006 H   0  0  0  0  0  0  0  0  0  0  0  0
   -0.0141   -2.3800    0.7549 H   0  0  0  0  0  0  0  0  0  0  0  0
    0.1317   -2.0295   -1.0039 H   0  0  0  0  0  0  0  0  0  0  0  0
    2.4985   -1.1994   -1.3104 H   0  0  0  0  0  0  0  0  0  0  0  0
    3.3110   -0.3721    0.0285 H   0  0  0  0  0  0  0  0  0  0  0  0
    2.7722   -2.0469    0.2207 H   0  0  0  0  0  0  0  0  0  0  0  0
    0.9907    2.8902   -0.0986 H   0  0  0  0  0  0  0  0  0  0  0  0
    1.1142    1.9987    1.4182 H   0  0  0  0  0  0  0  0  0  0  0  0
    2.4509    1.9507    0.2518 H   0  0  0  0  0  0  0  0  0  0  0  0
  1  6  2  0  0  0  0
  2  7  2  0  0  0  0
  3  4  1  0  0  0  0
  3  5  1  0  0  0  0
  3  8  1  0  0  0  0
  3 10  1  0  0  0  0
  4  6  1  0  0  0  0
  4  9  1  0  0  0  0
  4 11  1  0  0  0  0
  5  7  1  0  0  0  0
  5 12  1  0  0  0  0
  5 13  1  0  0  0  0
  6  7  1  0  0  0  0
  8 14  1  0  0  0  0
  8 15  1  0  0  0  0
  8 16  1  0  0  0  0
  9 17  1  0  0  0  0
  9 18  1  0  0  0  0
  9 19  1  0  0  0  0
M  END
> <PUBCHEM_COMPOUND_CID>
61633

> <PUBCHEM_CONFORMER_RMSD>
0.4

> <PUBCHEM_CONFORMER_DIVERSEORDER>
6
4
5
2
1
3

> <PUBCHEM_MMFF94_PARTIAL_CHARGES>
6
1 -0.57
2 -0.57
4 0.06
5 0.06
6 0.51
7 0.51

> <PUBCHEM_EFFECTIVE_ROTOR_COUNT>
0.6

> <PUBCHEM_PHARMACOPHORE_FEATURES>
3
1 1 acceptor
1 2 acceptor
5 3 4 5 6 7 rings

> <PUBCHEM_HEAVY_ATOM_COUNT>
9

> <PUBCHEM_ATOM_DEF_STEREO_COUNT>
0

> <PUBCHEM_ATOM_UDEF_STEREO_COUNT>
2

> <PUBCHEM_BOND_DEF_STEREO_COUNT>
0

> <PUBCHEM_BOND_UDEF_STEREO_COUNT>
0

> <PUBCHEM_ISOTOPIC_ATOM_COUNT>
0

> <PUBCHEM_COMPONENT_COUNT>
1

> <PUBCHEM_CACTVS_TAUTO_COUNT>
21

> <PUBCHEM_CONFORMER_ID>
0000F0C100000006

> <PUBCHEM_MMFF94_ENERGY>
11.5286

> <PUBCHEM_FEATURE_SELFOVERLAP>
15.227

> <PUBCHEM_SHAPE_FINGERPRINT>
12423570 1 12031790274843164242
161256 15 18338521957422819916
16945 1 18410855486003713958
18185500 45 18191867812420460442
21040471 1 17832983854070429308
23552423 10 18259989300917821718
241688 4 18334858298774670608
2748010 2 18409724075558878700
29004967 10 17900263301502841579
5084963 1 18202563990258007267

> <PUBCHEM_SHAPE_MULTIPOLES>
173.48
2.67
2.03
0.64
0.07
0.61
0
-0.61
-0.02
0.28
0.09
0.08
0.02
0.21

> <PUBCHEM_SHAPE_SELFOVERLAP>
349.855

> <PUBCHEM_SHAPE_VOLUME>
104.1

> <PUBCHEM_COORDINATE_TYPE>
2
5
10

$$$$
