61641
  -OEChem-11232109443D

 18 17  0     0  0  0  0  0  0999 V2000
   -2.8233   -0.8086   -0.0038 S   0  0  0  0  0  0  0  0  0  0  0  0
    2.2687   -0.6978    0.0023 O   0  0  0  0  0  0  0  0  0  0  0  0
    1.2414    1.3682    0.0013 O   0  0  0  0  0  0  0  0  0  0  0  0
   -0.0748   -0.6784    0.0076 C   0  0  0  0  0  0  0  0  0  0  0  0
   -1.3173    0.2043   -0.0184 C   0  0  0  0  0  0  0  0  0  0  0  0
    1.1937    0.1457    0.0034 C   0  0  0  0  0  0  0  0  0  0  0  0
   -4.0394    0.5284    0.0095 C   0  0  0  0  0  0  0  0  0  0  0  0
    3.5509   -0.0618   -0.0019 C   0  0  0  0  0  0  0  0  0  0  0  0
   -0.0677   -1.2970    0.9127 H   0  0  0  0  0  0  0  0  0  0  0  0
   -0.0548   -1.3283   -0.8753 H   0  0  0  0  0  0  0  0  0  0  0  0
   -1.3169    0.8298   -0.9176 H   0  0  0  0  0  0  0  0  0  0  0  0
   -1.3253    0.8667    0.8541 H   0  0  0  0  0  0  0  0  0  0  0  0
   -3.9188    1.1448    0.9041 H   0  0  0  0  0  0  0  0  0  0  0  0
   -5.0453    0.1003    0.0163 H   0  0  0  0  0  0  0  0  0  0  0  0
   -3.9328    1.1499   -0.8834 H   0  0  0  0  0  0  0  0  0  0  0  0
    4.3172   -0.8416   -0.0025 H   0  0  0  0  0  0  0  0  0  0  0  0
    3.6731    0.5500    0.8970 H   0  0  0  0  0  0  0  0  0  0  0  0
    3.6686    0.5469   -0.9034 H   0  0  0  0  0  0  0  0  0  0  0  0
  1  5  1  0  0  0  0
  1  7  1  0  0  0  0
  2  6  1  0  0  0  0
  2  8  1  0  0  0  0
  3  6  2  0  0  0  0
  4  5  1  0  0  0  0
  4  6  1  0  0  0  0
  4  9  1  0  0  0  0
  4 10  1  0  0  0  0
  5 11  1  0  0  0  0
  5 12  1  0  0  0  0
  7 13  1  0  0  0  0
  7 14  1  0  0  0  0
  7 15  1  0  0  0  0
  8 16  1  0  0  0  0
  8 17  1  0  0  0  0
  8 18  1  0  0  0  0
M  END
> <PUBCHEM_COMPOUND_CID>
61641

> <PUBCHEM_CONFORMER_RMSD>
0.6

> <PUBCHEM_CONFORMER_DIVERSEORDER>
1
27
24
13
4
20
10
19
5
21
14
16
2
26
23
22
7
17
3
12
18
6
15
25
11
9
8

> <PUBCHEM_MMFF94_PARTIAL_CHARGES>
8
1 -0.46
2 -0.43
3 -0.57
4 0.06
5 0.23
6 0.66
7 0.23
8 0.28

> <PUBCHEM_EFFECTIVE_ROTOR_COUNT>
4

> <PUBCHEM_PHARMACOPHORE_FEATURES>
2
1 3 acceptor
1 7 hydrophobe

> <PUBCHEM_HEAVY_ATOM_COUNT>
8

> <PUBCHEM_ATOM_DEF_STEREO_COUNT>
0

> <PUBCHEM_ATOM_UDEF_STEREO_COUNT>
0

> <PUBCHEM_BOND_DEF_STEREO_COUNT>
0

> <PUBCHEM_BOND_UDEF_STEREO_COUNT>
0

> <PUBCHEM_ISOTOPIC_ATOM_COUNT>
0

> <PUBCHEM_COMPONENT_COUNT>
1

> <PUBCHEM_CACTVS_TAUTO_COUNT>
1

> <PUBCHEM_CONFORMER_ID>
0000F0C900000001

> <PUBCHEM_MMFF94_ENERGY>
10.1856

> <PUBCHEM_FEATURE_SELFOVERLAP>
10.148

> <PUBCHEM_SHAPE_FINGERPRINT>
11062470 55 17561362880951312011
12932764 1 16877928473808172827
14325111 11 18410855503399692071
14390081 3 18411134762521450665
18342897 14 18409730655485640904
5460574 1 9295291642347097574

> <PUBCHEM_SHAPE_MULTIPOLES>
156.75
6.65
1.03
0.6
1.66
0.11
0
0.24
-0.01
0.11
0
0.08
-0.02
0

> <PUBCHEM_SHAPE_SELFOVERLAP>
269.54

> <PUBCHEM_SHAPE_VOLUME>
106.5

> <PUBCHEM_COORDINATE_TYPE>
2
5
10

$$$$
