61659
  -OEChem-11232108413D

 23 24  0     0  0  0  0  0  0999 V2000
   -0.0145   -0.2399   -0.0010 S   0  0  0  0  0  0  0  0  0  0  0  0
    3.5456    0.5498    0.8857 O   0  0  0  0  0  0  0  0  0  0  0  0
   -3.5393    0.5646   -0.8779 O   0  0  0  0  0  0  0  0  0  0  0  0
    1.3721    0.9502   -0.0574 C   0  0  0  0  0  0  0  0  0  0  0  0
   -1.3664    0.9548    0.0709 C   0  0  0  0  0  0  0  0  0  0  0  0
    2.6771    0.2785   -0.1234 C   0  0  0  0  0  0  0  0  0  0  0  0
   -2.6991    0.2652    0.1283 C   0  0  0  0  0  0  0  0  0  0  0  0
    3.2376   -0.6017   -1.0195 C   0  0  0  0  0  0  0  0  0  0  0  0
   -3.2294   -0.6141    1.0104 C   0  0  0  0  0  0  0  0  0  0  0  0
    4.5338   -0.8896   -0.5297 C   0  0  0  0  0  0  0  0  0  0  0  0
   -4.5251   -0.8970    0.5163 C   0  0  0  0  0  0  0  0  0  0  0  0
    4.6730   -0.1650    0.6311 C   0  0  0  0  0  0  0  0  0  0  0  0
   -4.6655   -0.1557   -0.6338 C   0  0  0  0  0  0  0  0  0  0  0  0
    1.3137    1.5882    0.8308 H   0  0  0  0  0  0  0  0  0  0  0  0
    1.2480    1.5885   -0.9386 H   0  0  0  0  0  0  0  0  0  0  0  0
   -1.3183    1.6049   -0.8092 H   0  0  0  0  0  0  0  0  0  0  0  0
   -1.2534    1.5791    0.9636 H   0  0  0  0  0  0  0  0  0  0  0  0
    2.7749   -0.9885   -1.9164 H   0  0  0  0  0  0  0  0  0  0  0  0
   -2.7658   -1.0124    1.9013 H   0  0  0  0  0  0  0  0  0  0  0  0
    5.2741   -1.5431   -0.9680 H   0  0  0  0  0  0  0  0  0  0  0  0
   -5.2645   -1.5580    0.9451 H   0  0  0  0  0  0  0  0  0  0  0  0
    5.4691   -0.0548    1.3528 H   0  0  0  0  0  0  0  0  0  0  0  0
   -5.4619   -0.0363   -1.3538 H   0  0  0  0  0  0  0  0  0  0  0  0
  1  4  1  0  0  0  0
  1  5  1  0  0  0  0
  2  6  1  0  0  0  0
  2 12  1  0  0  0  0
  3  7  1  0  0  0  0
  3 13  1  0  0  0  0
  4  6  1  0  0  0  0
  4 14  1  0  0  0  0
  4 15  1  0  0  0  0
  5  7  1  0  0  0  0
  5 16  1  0  0  0  0
  5 17  1  0  0  0  0
  6  8  2  0  0  0  0
  7  9  2  0  0  0  0
  8 10  1  0  0  0  0
  8 18  1  0  0  0  0
  9 11  1  0  0  0  0
  9 19  1  0  0  0  0
 10 12  2  0  0  0  0
 10 20  1  0  0  0  0
 11 13  2  0  0  0  0
 11 21  1  0  0  0  0
 12 22  1  0  0  0  0
 13 23  1  0  0  0  0
M  END
> <PUBCHEM_COMPOUND_CID>
61659

> <PUBCHEM_CONFORMER_RMSD>
0.6

> <PUBCHEM_CONFORMER_DIVERSEORDER>
1
6
29
27
32
19
28
49
3
9
11
31
5
45
12
10
15
35
14
24
46
2
37
26
41
16
13
7
21
43
40
48
33
42
38
20
8
17
4
23
39
36
18
47
25
34
30
44
22

> <PUBCHEM_MMFF94_PARTIAL_CHARGES>
19
1 -0.46
10 -0.15
11 -0.15
12 -0.01
13 -0.01
18 0.15
19 0.15
2 -0.28
20 0.15
21 0.15
22 0.15
23 0.15
3 -0.28
4 0.41
5 0.41
6 -0.04
7 -0.04
8 -0.15
9 -0.15

> <PUBCHEM_EFFECTIVE_ROTOR_COUNT>
4

> <PUBCHEM_PHARMACOPHORE_FEATURES>
4
1 2 acceptor
1 3 acceptor
5 2 6 8 10 12 rings
5 3 7 9 11 13 rings

> <PUBCHEM_HEAVY_ATOM_COUNT>
13

> <PUBCHEM_ATOM_DEF_STEREO_COUNT>
0

> <PUBCHEM_ATOM_UDEF_STEREO_COUNT>
0

> <PUBCHEM_BOND_DEF_STEREO_COUNT>
0

> <PUBCHEM_BOND_UDEF_STEREO_COUNT>
0

> <PUBCHEM_ISOTOPIC_ATOM_COUNT>
0

> <PUBCHEM_COMPONENT_COUNT>
1

> <PUBCHEM_CACTVS_TAUTO_COUNT>
1

> <PUBCHEM_CONFORMER_ID>
0000F0DB00000001

> <PUBCHEM_MMFF94_ENERGY>
7.3629

> <PUBCHEM_FEATURE_SELFOVERLAP>
20.297

> <PUBCHEM_SHAPE_FINGERPRINT>
10014705 185 8286193925417764843
10912923 1 15697996353241243302
11543360 7 15647345176859564836
13167823 11 16298386872332480091
13897977 58 13614241503378734139
14123238 8 17275385417204922472
14251718 22 17603875532805107014
14252887 29 17846504703756346782
14455015 7 18272379645969852086
15242439 84 18113334211080556029
17834072 33 14562819884143734659
17834076 25 15213018245919258383
17870717 6 17895200982681399791
18186145 218 11386369257215476020
19050596 39 15554446305557320009
1986462 14 17821729433853924085
200 152 18131630080393068081
20279233 1 18410859862469848070
20432913 95 17917997169691190383
20645477 70 18272654511366538262
21119208 17 15719392836627509664
212847 35 9727637194206565726
22485316 2 18410571786133541794
23402539 116 17418089902019337669
23402655 69 13767933425090261850
23403322 49 18333170566022485523
23559900 14 17822291339803667028
26918003 58 18059857268219279091
42 15 17417816131844528476
522135 26 13767923516579624048
573450 72 17167850946646827337
69090 78 17775563152227203766

> <PUBCHEM_SHAPE_MULTIPOLES>
259.64
11.84
0.99
0.97
0.09
0.01
0
-2.79
0
0
0
0
-0.08
0.71

> <PUBCHEM_SHAPE_SELFOVERLAP>
534.954

> <PUBCHEM_SHAPE_VOLUME>
152.5

> <PUBCHEM_COORDINATE_TYPE>
2
5
10

$$$$
