61657
  -OEChem-11232108403D

 16 16  0     0  0  0  0  0  0999 V2000
    2.3345   -0.4622   -0.2966 S   0  0  0  0  0  0  0  0  0  0  0  0
   -0.1336    0.6650   -0.1884 O   0  0  0  0  0  0  0  0  0  0  0  0
   -1.4312    0.3062   -0.0035 C   0  0  0  0  0  0  0  0  0  0  0  0
    0.6000   -0.4761   -0.1108 C   0  0  0  0  0  0  0  0  0  0  0  0
   -1.5340   -1.0515    0.1917 C   0  0  0  0  0  0  0  0  0  0  0  0
   -0.2149   -1.5595    0.1219 C   0  0  0  0  0  0  0  0  0  0  0  0
   -2.4190    1.3936   -0.0479 C   0  0  0  0  0  0  0  0  0  0  0  0
    2.7981    1.1846    0.3335 C   0  0  0  0  0  0  0  0  0  0  0  0
   -2.4443   -1.6082    0.3628 H   0  0  0  0  0  0  0  0  0  0  0  0
    0.0933   -2.5903    0.2292 H   0  0  0  0  0  0  0  0  0  0  0  0
   -2.2082    2.1363    0.7277 H   0  0  0  0  0  0  0  0  0  0  0  0
   -2.3953    1.8948   -1.0204 H   0  0  0  0  0  0  0  0  0  0  0  0
   -3.4327    1.0136    0.1131 H   0  0  0  0  0  0  0  0  0  0  0  0
    2.4564    1.3035    1.3651 H   0  0  0  0  0  0  0  0  0  0  0  0
    2.3562    1.9662   -0.2901 H   0  0  0  0  0  0  0  0  0  0  0  0
    3.8861    1.2857    0.3071 H   0  0  0  0  0  0  0  0  0  0  0  0
  1  4  1  0  0  0  0
  1  8  1  0  0  0  0
  2  3  1  0  0  0  0
  2  4  1  0  0  0  0
  3  5  2  0  0  0  0
  3  7  1  0  0  0  0
  4  6  2  0  0  0  0
  5  6  1  0  0  0  0
  5  9  1  0  0  0  0
  6 10  1  0  0  0  0
  7 11  1  0  0  0  0
  7 12  1  0  0  0  0
  7 13  1  0  0  0  0
  8 14  1  0  0  0  0
  8 15  1  0  0  0  0
  8 16  1  0  0  0  0
M  END
> <PUBCHEM_COMPOUND_CID>
61657

> <PUBCHEM_CONFORMER_RMSD>
0.4

> <PUBCHEM_CONFORMER_DIVERSEORDER>
1
5
2
4
3

> <PUBCHEM_MMFF94_PARTIAL_CHARGES>
10
1 -0.29
10 0.15
2 -0.28
3 -0.04
4 0.2
5 -0.15
6 -0.15
7 0.18
8 0.23
9 0.15

> <PUBCHEM_EFFECTIVE_ROTOR_COUNT>
1

> <PUBCHEM_PHARMACOPHORE_FEATURES>
3
1 2 acceptor
1 8 hydrophobe
5 2 3 4 5 6 rings

> <PUBCHEM_HEAVY_ATOM_COUNT>
8

> <PUBCHEM_ATOM_DEF_STEREO_COUNT>
0

> <PUBCHEM_ATOM_UDEF_STEREO_COUNT>
0

> <PUBCHEM_BOND_DEF_STEREO_COUNT>
0

> <PUBCHEM_BOND_UDEF_STEREO_COUNT>
0

> <PUBCHEM_ISOTOPIC_ATOM_COUNT>
0

> <PUBCHEM_COMPONENT_COUNT>
1

> <PUBCHEM_CACTVS_TAUTO_COUNT>
1

> <PUBCHEM_CONFORMER_ID>
0000F0D900000001

> <PUBCHEM_MMFF94_ENERGY>
2.855

> <PUBCHEM_FEATURE_SELFOVERLAP>
15.223

> <PUBCHEM_SHAPE_FINGERPRINT>
14325111 11 18410575063198869932
14390081 3 18413669101904709656
19973954 147 18340209682344764424
20645464 45 18343022207392437330
20653085 51 17916597435644075593
21040471 1 18335426711973867615
23552423 10 18259989296844640830
369184 2 18411135874474920650

> <PUBCHEM_SHAPE_MULTIPOLES>
162.62
3.77
1.6
0.66
1.56
0.01
0
-1.68
-0.09
-0.31
-0.09
0.08
0
0.27

> <PUBCHEM_SHAPE_SELFOVERLAP>
313.862

> <PUBCHEM_SHAPE_VOLUME>
102.4

> <PUBCHEM_COORDINATE_TYPE>
2
5
10

$$$$
