61658
  -OEChem-11232109103D

 27 27  0     0  0  0  0  0  0999 V2000
    0.2626    0.4675   -0.3197 O   0  0  0  0  0  0  0  0  0  0  0  0
   -2.0528   -0.9031    0.5131 O   0  0  0  0  0  0  0  0  0  0  0  0
    1.8397    1.9331    0.5077 O   0  0  0  0  0  0  0  0  0  0  0  0
    3.1750   -0.9391   -0.3991 C   0  0  0  0  0  0  0  0  0  0  0  0
    2.4589    0.2214   -1.1070 C   0  0  0  0  0  0  0  0  0  0  0  0
    3.9849   -0.4470    0.8031 C   0  0  0  0  0  0  0  0  0  0  0  0
    2.1550   -1.9838    0.0575 C   0  0  0  0  0  0  0  0  0  0  0  0
    1.5207    0.9855   -0.1971 C   0  0  0  0  0  0  0  0  0  0  0  0
   -0.7488    1.1145    0.4595 C   0  0  0  0  0  0  0  0  0  0  0  0
   -2.0366    0.4026    0.1841 C   0  0  0  0  0  0  0  0  0  0  0  0
   -3.2156    0.8195   -0.3421 C   0  0  0  0  0  0  0  0  0  0  0  0
   -4.0481   -0.3249   -0.3450 C   0  0  0  0  0  0  0  0  0  0  0  0
   -3.2949   -1.3464    0.1850 C   0  0  0  0  0  0  0  0  0  0  0  0
    3.8599   -1.4067   -1.1167 H   0  0  0  0  0  0  0  0  0  0  0  0
    1.9034   -0.1378   -1.9821 H   0  0  0  0  0  0  0  0  0  0  0  0
    3.1918    0.9390   -1.4960 H   0  0  0  0  0  0  0  0  0  0  0  0
    3.3461   -0.0593    1.6031 H   0  0  0  0  0  0  0  0  0  0  0  0
    4.5750   -1.2683    1.2245 H   0  0  0  0  0  0  0  0  0  0  0  0
    4.6816    0.3436    0.5054 H   0  0  0  0  0  0  0  0  0  0  0  0
    1.5025   -1.6082    0.8524 H   0  0  0  0  0  0  0  0  0  0  0  0
    1.5273   -2.3112   -0.7781 H   0  0  0  0  0  0  0  0  0  0  0  0
    2.6694   -2.8681    0.4498 H   0  0  0  0  0  0  0  0  0  0  0  0
   -0.8250    2.1678    0.1677 H   0  0  0  0  0  0  0  0  0  0  0  0
   -0.5042    1.0403    1.5250 H   0  0  0  0  0  0  0  0  0  0  0  0
   -3.4631    1.8137   -0.6852 H   0  0  0  0  0  0  0  0  0  0  0  0
   -5.0694   -0.3964   -0.6901 H   0  0  0  0  0  0  0  0  0  0  0  0
   -3.4861   -2.3907    0.3846 H   0  0  0  0  0  0  0  0  0  0  0  0
  1  8  1  0  0  0  0
  1  9  1  0  0  0  0
  2 10  1  0  0  0  0
  2 13  1  0  0  0  0
  3  8  2  0  0  0  0
  4  5  1  0  0  0  0
  4  6  1  0  0  0  0
  4  7  1  0  0  0  0
  4 14  1  0  0  0  0
  5  8  1  0  0  0  0
  5 15  1  0  0  0  0
  5 16  1  0  0  0  0
  6 17  1  0  0  0  0
  6 18  1  0  0  0  0
  6 19  1  0  0  0  0
  7 20  1  0  0  0  0
  7 21  1  0  0  0  0
  7 22  1  0  0  0  0
  9 10  1  0  0  0  0
  9 23  1  0  0  0  0
  9 24  1  0  0  0  0
 10 11  2  0  0  0  0
 11 12  1  0  0  0  0
 11 25  1  0  0  0  0
 12 13  2  0  0  0  0
 12 26  1  0  0  0  0
 13 27  1  0  0  0  0
M  END
> <PUBCHEM_COMPOUND_CID>
61658

> <PUBCHEM_CONFORMER_RMSD>
0.6

> <PUBCHEM_CONFORMER_DIVERSEORDER>
1
77
37
50
18
10
72
41
15
76
71
6
78
12
69
20
29
68
11
45
64
30
48
75
26
57
70
34
16
38
74
60
47
9
55
4
25
53
27
43
66
17
36
62
61
28
40
13
52
44
21
5
35
42
46
59
2
51
33
56
67
49
8
39
31
54
73
7
14
63
3
32
24
65
58
19
22
23

> <PUBCHEM_MMFF94_PARTIAL_CHARGES>
13
1 -0.43
10 -0.04
11 -0.15
12 -0.15
13 -0.01
2 -0.28
25 0.15
26 0.15
27 0.15
3 -0.57
5 0.06
8 0.66
9 0.46

> <PUBCHEM_EFFECTIVE_ROTOR_COUNT>
5

> <PUBCHEM_PHARMACOPHORE_FEATURES>
4
1 2 acceptor
1 3 acceptor
3 4 6 7 hydrophobe
5 2 10 11 12 13 rings

> <PUBCHEM_HEAVY_ATOM_COUNT>
13

> <PUBCHEM_ATOM_DEF_STEREO_COUNT>
0

> <PUBCHEM_ATOM_UDEF_STEREO_COUNT>
0

> <PUBCHEM_BOND_DEF_STEREO_COUNT>
0

> <PUBCHEM_BOND_UDEF_STEREO_COUNT>
0

> <PUBCHEM_ISOTOPIC_ATOM_COUNT>
0

> <PUBCHEM_COMPONENT_COUNT>
1

> <PUBCHEM_CACTVS_TAUTO_COUNT>
1

> <PUBCHEM_CONFORMER_ID>
0000F0DA00000001

> <PUBCHEM_MMFF94_ENERGY>
9.9247

> <PUBCHEM_FEATURE_SELFOVERLAP>
20.297

> <PUBCHEM_SHAPE_FINGERPRINT>
12815109 37 18410289194676259344
12932764 1 18341623658550762837
13296908 3 18337392742196967553
14144814 61 18341899558395997251
14251717 144 18410009931581728654
14252887 29 17632303354465061942
14350558 41 18335425664096689060
15757776 16 18186801349108422634
177051 138 18201722838193006238
17834072 14 18340196419327362608
18186145 218 14417852561682078029
19107657 46 18411420604905258799
200 152 18060129947408864245
20201158 50 18408606941701483570
20279233 1 18411136943715906081
20281407 28 18410016502886699932
20281475 54 18338243669486007156
20645477 70 18272652372203429335
20671657 53 18341054034059920848
21501925 9 18272928332268201096
22169311 21 18337665408095501365
22485316 2 18408882923451621148
2255824 54 18337680827049453036
23402539 116 16588019087645290028
23559900 14 18410004472604617824
57005193 9 18336818723754511534
57812782 119 18411698790005163709
581208 293 18411698807432952646
7364860 26 18340768259958460864
81539 233 18194963174340633484
93112 12 18260832609288397157
9709674 26 18409735075118160951
9882013 296 13470681551225990955

> <PUBCHEM_SHAPE_MULTIPOLES>
249.93
7.74
1.7
0.84
1.67
0.18
-0.06
2.24
-0.04
-0.53
0.18
-0.41
-0.04
0.1

> <PUBCHEM_SHAPE_SELFOVERLAP>
502.307

> <PUBCHEM_SHAPE_VOLUME>
148.6

> <PUBCHEM_COORDINATE_TYPE>
2
5
10

$$$$
