61664
  -OEChem-11232109413D

 15 15  0     1  0  0  0  0  0999 V2000
   -1.3561   -1.1189   -0.4538 S   0  0  0  0  0  0  0  0  0  0  0  0
    1.6704    1.2125   -0.0606 O   0  0  0  0  0  0  0  0  0  0  0  0
    0.4388   -0.8218   -0.4623 C   0  0  1  0  0  0  0  0  0  0  0  0
   -0.7217    1.3918    0.0430 C   0  0  0  0  0  0  0  0  0  0  0  0
   -1.7472    0.3693    0.4904 C   0  0  0  0  0  0  0  0  0  0  0  0
    0.5808    0.6504   -0.1324 C   0  0  0  0  0  0  0  0  0  0  0  0
    1.1349   -1.6833    0.5757 C   0  0  0  0  0  0  0  0  0  0  0  0
    0.8255   -1.0072   -1.4683 H   0  0  0  0  0  0  0  0  0  0  0  0
   -0.6108    2.1843    0.7885 H   0  0  0  0  0  0  0  0  0  0  0  0
   -0.9971    1.8397   -0.9182 H   0  0  0  0  0  0  0  0  0  0  0  0
   -1.6443    0.1479    1.5576 H   0  0  0  0  0  0  0  0  0  0  0  0
   -2.7699    0.7045    0.2988 H   0  0  0  0  0  0  0  0  0  0  0  0
    2.2149   -1.4973    0.5620 H   0  0  0  0  0  0  0  0  0  0  0  0
    0.7877   -1.4634    1.5920 H   0  0  0  0  0  0  0  0  0  0  0  0
    0.9813   -2.7496    0.3784 H   0  0  0  0  0  0  0  0  0  0  0  0
  1  3  1  0  0  0  0
  1  5  1  0  0  0  0
  2  6  2  0  0  0  0
  3  6  1  0  0  0  0
  3  7  1  0  0  0  0
  3  8  1  0  0  0  0
  4  5  1  0  0  0  0
  4  6  1  0  0  0  0
  4  9  1  0  0  0  0
  4 10  1  0  0  0  0
  5 11  1  0  0  0  0
  5 12  1  0  0  0  0
  7 13  1  0  0  0  0
  7 14  1  0  0  0  0
  7 15  1  0  0  0  0
M  END
> <PUBCHEM_COMPOUND_CID>
61664

> <PUBCHEM_CONFORMER_RMSD>
0.4

> <PUBCHEM_CONFORMER_DIVERSEORDER>
2
1

> <PUBCHEM_MMFF94_PARTIAL_CHARGES>
6
1 -0.46
2 -0.57
3 0.29
4 0.06
5 0.23
6 0.45

> <PUBCHEM_EFFECTIVE_ROTOR_COUNT>
0.8

> <PUBCHEM_PHARMACOPHORE_FEATURES>
2
1 2 acceptor
5 1 3 4 5 6 rings

> <PUBCHEM_HEAVY_ATOM_COUNT>
7

> <PUBCHEM_ATOM_DEF_STEREO_COUNT>
0

> <PUBCHEM_ATOM_UDEF_STEREO_COUNT>
1

> <PUBCHEM_BOND_DEF_STEREO_COUNT>
0

> <PUBCHEM_BOND_UDEF_STEREO_COUNT>
0

> <PUBCHEM_ISOTOPIC_ATOM_COUNT>
0

> <PUBCHEM_COMPONENT_COUNT>
1

> <PUBCHEM_CACTVS_TAUTO_COUNT>
3

> <PUBCHEM_CONFORMER_ID>
0000F0E000000002

> <PUBCHEM_MMFF94_ENERGY>
5.4304

> <PUBCHEM_FEATURE_SELFOVERLAP>
10.148

> <PUBCHEM_SHAPE_FINGERPRINT>
137420 1 8958342408432332133
16714656 1 17979926225901989420
18185500 45 18341043133480409439
20096714 4 18342468036019859701
21040471 1 18342185483048770117
23552333 60 18343020008374534731
24536 1 17488745558364743845
29004967 10 17822304469497247705
5943 1 11446545227818802350

> <PUBCHEM_SHAPE_MULTIPOLES>
142.04
2.01
1.83
0.77
0.09
0.13
-0.01
-0.23
-0.35
-0.28
0.09
0.01
-0.15
-0.25

> <PUBCHEM_SHAPE_SELFOVERLAP>
264.583

> <PUBCHEM_SHAPE_VOLUME>
91.4

> <PUBCHEM_COORDINATE_TYPE>
2
5
10

$$$$
