61665
  -OEChem-11232108513D

 27 27  0     1  0  0  0  0  0999 V2000
   -0.2038   -0.6244    0.0843 O   0  0  0  0  0  0  0  0  0  0  0  0
   -1.3045    0.2963    0.2356 C   0  0  2  0  0  0  0  0  0  0  0  0
   -0.9451    1.5256   -0.6001 C   0  0  0  0  0  0  0  0  0  0  0  0
    0.5652    1.5142   -0.5736 C   0  0  0  0  0  0  0  0  0  0  0  0
    0.8632    0.0256   -0.6278 C   0  0  1  0  0  0  0  0  0  0  0  0
   -1.4333    0.6247    1.7242 C   0  0  0  0  0  0  0  0  0  0  0  0
    2.1713   -0.3399   -0.0180 C   0  0  0  0  0  0  0  0  0  0  0  0
   -2.5554   -0.3649   -0.2520 C   0  0  0  0  0  0  0  0  0  0  0  0
    2.1673   -0.5779    1.4630 C   0  0  0  0  0  0  0  0  0  0  0  0
    3.2891   -0.4504   -0.7510 C   0  0  0  0  0  0  0  0  0  0  0  0
   -2.6141   -1.6289   -0.6845 C   0  0  0  0  0  0  0  0  0  0  0  0
   -1.3707    2.4573   -0.2138 H   0  0  0  0  0  0  0  0  0  0  0  0
   -1.2839    1.4130   -1.6384 H   0  0  0  0  0  0  0  0  0  0  0  0
    1.0100    2.0642   -1.4087 H   0  0  0  0  0  0  0  0  0  0  0  0
    0.9244    1.9715    0.3561 H   0  0  0  0  0  0  0  0  0  0  0  0
    0.8044   -0.3282   -1.6652 H   0  0  0  0  0  0  0  0  0  0  0  0
   -1.5968   -0.2854    2.3139 H   0  0  0  0  0  0  0  0  0  0  0  0
   -0.5176    1.0804    2.1151 H   0  0  0  0  0  0  0  0  0  0  0  0
   -2.2634    1.3134    1.9162 H   0  0  0  0  0  0  0  0  0  0  0  0
   -3.4699    0.2236   -0.2485 H   0  0  0  0  0  0  0  0  0  0  0  0
    1.7960    0.3012    1.9980 H   0  0  0  0  0  0  0  0  0  0  0  0
    1.5457   -1.4407    1.7228 H   0  0  0  0  0  0  0  0  0  0  0  0
    3.1751   -0.7820    1.8417 H   0  0  0  0  0  0  0  0  0  0  0  0
    4.2382   -0.7178   -0.2986 H   0  0  0  0  0  0  0  0  0  0  0  0
    3.2791   -0.2739   -1.8215 H   0  0  0  0  0  0  0  0  0  0  0  0
   -3.5612   -2.0382   -1.0216 H   0  0  0  0  0  0  0  0  0  0  0  0
   -1.7550   -2.2881   -0.7193 H   0  0  0  0  0  0  0  0  0  0  0  0
  1  2  1  0  0  0  0
  1  5  1  0  0  0  0
  2  3  1  0  0  0  0
  2  6  1  0  0  0  0
  2  8  1  0  0  0  0
  3  4  1  0  0  0  0
  3 12  1  0  0  0  0
  3 13  1  0  0  0  0
  4  5  1  0  0  0  0
  4 14  1  0  0  0  0
  4 15  1  0  0  0  0
  5  7  1  0  0  0  0
  5 16  1  0  0  0  0
  6 17  1  0  0  0  0
  6 18  1  0  0  0  0
  6 19  1  0  0  0  0
  7  9  1  0  0  0  0
  7 10  2  0  0  0  0
  8 11  2  0  0  0  0
  8 20  1  0  0  0  0
  9 21  1  0  0  0  0
  9 22  1  0  0  0  0
  9 23  1  0  0  0  0
 10 24  1  0  0  0  0
 10 25  1  0  0  0  0
 11 26  1  0  0  0  0
 11 27  1  0  0  0  0
M  END
> <PUBCHEM_COMPOUND_CID>
61665

> <PUBCHEM_CONFORMER_RMSD>
0.6

> <PUBCHEM_CONFORMER_DIVERSEORDER>
2
3
14
17
13
12
19
11
8
9
20
6
7
5
10
16
1
4
15
18

> <PUBCHEM_MMFF94_PARTIAL_CHARGES>
13
1 -0.56
10 -0.3
11 -0.3
2 0.42
20 0.15
24 0.15
25 0.15
26 0.15
27 0.15
5 0.42
7 -0.28
8 -0.29
9 0.14

> <PUBCHEM_EFFECTIVE_ROTOR_COUNT>
3

> <PUBCHEM_PHARMACOPHORE_FEATURES>
3
1 1 acceptor
1 11 hydrophobe
5 1 2 3 4 5 rings

> <PUBCHEM_HEAVY_ATOM_COUNT>
11

> <PUBCHEM_ATOM_DEF_STEREO_COUNT>
0

> <PUBCHEM_ATOM_UDEF_STEREO_COUNT>
2

> <PUBCHEM_BOND_DEF_STEREO_COUNT>
0

> <PUBCHEM_BOND_UDEF_STEREO_COUNT>
0

> <PUBCHEM_ISOTOPIC_ATOM_COUNT>
0

> <PUBCHEM_COMPONENT_COUNT>
1

> <PUBCHEM_CACTVS_TAUTO_COUNT>
1

> <PUBCHEM_CONFORMER_ID>
0000F0E100000002

> <PUBCHEM_MMFF94_ENERGY>
20.9554

> <PUBCHEM_FEATURE_SELFOVERLAP>
15.223

> <PUBCHEM_SHAPE_FINGERPRINT>
10857977 72 17417802985039423251
12423570 1 8094079711755568957
12932764 1 18334860472339202656
13024252 1 16588599616636291333
14128692 85 18268428108553593303
16945 1 18340194194550192405
17844478 74 16272208604434696218
20653085 51 12757428302495472487
21028194 46 10519988162102987455
23552423 10 17968942023178255261
2748010 2 17245008256045022688
29004967 10 15792026557963690460
369184 2 18336540521547752504
5084963 1 18273497857874399462
8030462 33 17458347394935981990

> <PUBCHEM_SHAPE_MULTIPOLES>
220.51
4.28
1.43
1.29
1.47
0.19
0.64
-1.84
-0.43
-0.7
-0.33
0.1
0.07
-0.47

> <PUBCHEM_SHAPE_SELFOVERLAP>
439.098

> <PUBCHEM_SHAPE_VOLUME>
133.3

> <PUBCHEM_COORDINATE_TYPE>
2
5
10

$$$$
