61700
  -OEChem-11232109473D

 22 22  0     0  0  0  0  0  0999 V2000
   -0.1635    1.0615    0.0016 N   0  0  0  0  0  0  0  0  0  0  0  0
    1.5347   -1.1706   -0.0010 N   0  0  0  0  0  0  0  0  0  0  0  0
   -2.1198   -0.3739   -0.0009 C   0  0  0  0  0  0  0  0  0  0  0  0
   -0.6130   -0.1955    0.0005 C   0  0  0  0  0  0  0  0  0  0  0  0
   -2.7556    0.2190   -1.2608 C   0  0  0  0  0  0  0  0  0  0  0  0
   -2.7577    0.2144    1.2600 C   0  0  0  0  0  0  0  0  0  0  0  0
    0.1927   -1.2951   -0.0008 C   0  0  0  0  0  0  0  0  0  0  0  0
    2.0126    0.0895    0.0004 C   0  0  0  0  0  0  0  0  0  0  0  0
    1.1785    1.1859    0.0017 C   0  0  0  0  0  0  0  0  0  0  0  0
    3.4910    0.2647   -0.0006 C   0  0  0  0  0  0  0  0  0  0  0  0
   -2.3472   -1.4485   -0.0031 H   0  0  0  0  0  0  0  0  0  0  0  0
   -2.6095    1.3036   -1.3154 H   0  0  0  0  0  0  0  0  0  0  0  0
   -3.8332    0.0240   -1.2795 H   0  0  0  0  0  0  0  0  0  0  0  0
   -2.3181   -0.2215   -2.1637 H   0  0  0  0  0  0  0  0  0  0  0  0
   -2.3218   -0.2296    2.1619 H   0  0  0  0  0  0  0  0  0  0  0  0
   -3.8354    0.0197    1.2761 H   0  0  0  0  0  0  0  0  0  0  0  0
   -2.6114    1.2988    1.3189 H   0  0  0  0  0  0  0  0  0  0  0  0
   -0.1821   -2.3108   -0.0021 H   0  0  0  0  0  0  0  0  0  0  0  0
    1.5549    2.2022    0.0024 H   0  0  0  0  0  0  0  0  0  0  0  0
    3.8091    0.8139   -0.8924 H   0  0  0  0  0  0  0  0  0  0  0  0
    3.8102    0.8147    0.8903 H   0  0  0  0  0  0  0  0  0  0  0  0
    4.0017   -0.7039   -0.0005 H   0  0  0  0  0  0  0  0  0  0  0  0
  1  4  2  0  0  0  0
  1  9  1  0  0  0  0
  2  7  2  0  0  0  0
  2  8  1  0  0  0  0
  3  4  1  0  0  0  0
  3  5  1  0  0  0  0
  3  6  1  0  0  0  0
  3 11  1  0  0  0  0
  4  7  1  0  0  0  0
  5 12  1  0  0  0  0
  5 13  1  0  0  0  0
  5 14  1  0  0  0  0
  6 15  1  0  0  0  0
  6 16  1  0  0  0  0
  6 17  1  0  0  0  0
  7 18  1  0  0  0  0
  8  9  2  0  0  0  0
  8 10  1  0  0  0  0
  9 19  1  0  0  0  0
 10 20  1  0  0  0  0
 10 21  1  0  0  0  0
 10 22  1  0  0  0  0
M  END
> <PUBCHEM_COMPOUND_CID>
61700

> <PUBCHEM_CONFORMER_RMSD>
0.4

> <PUBCHEM_CONFORMER_DIVERSEORDER>
1
3
2

> <PUBCHEM_MMFF94_PARTIAL_CHARGES>
10
1 -0.62
10 0.14
18 0.15
19 0.15
2 -0.62
3 0.14
4 0.17
7 0.16
8 0.17
9 0.16

> <PUBCHEM_EFFECTIVE_ROTOR_COUNT>
1

> <PUBCHEM_PHARMACOPHORE_FEATURES>
4
1 1 acceptor
1 2 acceptor
3 3 5 6 hydrophobe
6 1 2 4 7 8 9 rings

> <PUBCHEM_HEAVY_ATOM_COUNT>
10

> <PUBCHEM_ATOM_DEF_STEREO_COUNT>
0

> <PUBCHEM_ATOM_UDEF_STEREO_COUNT>
0

> <PUBCHEM_BOND_DEF_STEREO_COUNT>
0

> <PUBCHEM_BOND_UDEF_STEREO_COUNT>
0

> <PUBCHEM_ISOTOPIC_ATOM_COUNT>
0

> <PUBCHEM_COMPONENT_COUNT>
1

> <PUBCHEM_CACTVS_TAUTO_COUNT>
2

> <PUBCHEM_CONFORMER_ID>
0000F10400000001

> <PUBCHEM_MMFF94_ENERGY>
22.1381

> <PUBCHEM_FEATURE_SELFOVERLAP>
20.301

> <PUBCHEM_SHAPE_FINGERPRINT>
10219947 1 18407760343786619788
10857977 72 17168150078318195433
124424 183 17458609104183111016
12932764 1 17822290214432168498
14325111 11 18410856594226394240
15310529 11 16805322214666956058
16945 1 18410856564156322432
17844478 74 17822303387429239561
21040471 1 18266459995635273414
23235685 24 18411420626437682272
23402539 116 14836125404125269185
23402655 69 18266157467314785309
2748010 2 18121778331527484780
29004967 10 18187652392108111841
3248919 1 17917710214357289614
5084963 1 18262797518097647787
528886 8 18413105065282228211
63268167 104 18341326730049495643

> <PUBCHEM_SHAPE_MULTIPOLES>
195.83
4.75
1.16
0.93
0.78
0.1
0
-0.48
0
0.32
0
-0.92
-0.09
0

> <PUBCHEM_SHAPE_SELFOVERLAP>
395.108

> <PUBCHEM_SHAPE_VOLUME>
115.4

> <PUBCHEM_COORDINATE_TYPE>
2
5
10

$$$$
