61715
  -OEChem-11232109213D

 23 23  0     0  0  0  0  0  0999 V2000
   -1.9978   -1.2292    0.2495 N   0  0  0  0  0  0  0  0  0  0  0  0
    2.3916    0.0361   -0.1239 C   0  0  0  0  0  0  0  0  0  0  0  0
    1.2622    0.0166   -1.1724 C   0  0  0  0  0  0  0  0  0  0  0  0
   -0.1242    0.0212   -0.5760 C   0  0  0  0  0  0  0  0  0  0  0  0
    2.2724    1.2305    0.8262 C   0  0  0  0  0  0  0  0  0  0  0  0
    2.3741   -1.2660    0.6808 C   0  0  0  0  0  0  0  0  0  0  0  0
   -0.7666    1.2148   -0.3206 C   0  0  0  0  0  0  0  0  0  0  0  0
   -0.7573   -1.1633   -0.2841 C   0  0  0  0  0  0  0  0  0  0  0  0
   -2.0440    1.1879    0.2282 C   0  0  0  0  0  0  0  0  0  0  0  0
   -2.6104   -0.0487    0.4923 C   0  0  0  0  0  0  0  0  0  0  0  0
    3.3477    0.1034   -0.6575 H   0  0  0  0  0  0  0  0  0  0  0  0
    1.3754   -0.8559   -1.8294 H   0  0  0  0  0  0  0  0  0  0  0  0
    1.3686    0.8884   -1.8321 H   0  0  0  0  0  0  0  0  0  0  0  0
    1.4107    1.1527    1.4964 H   0  0  0  0  0  0  0  0  0  0  0  0
    2.2014    2.1699    0.2682 H   0  0  0  0  0  0  0  0  0  0  0  0
    3.1644    1.2932    1.4599 H   0  0  0  0  0  0  0  0  0  0  0  0
    3.2699   -1.3273    1.3093 H   0  0  0  0  0  0  0  0  0  0  0  0
    1.5113   -1.3366    1.3502 H   0  0  0  0  0  0  0  0  0  0  0  0
    2.3789   -2.1401    0.0211 H   0  0  0  0  0  0  0  0  0  0  0  0
   -0.3000    2.1695   -0.5432 H   0  0  0  0  0  0  0  0  0  0  0  0
   -0.2947   -2.1261   -0.4738 H   0  0  0  0  0  0  0  0  0  0  0  0
   -2.5797    2.1057    0.4413 H   0  0  0  0  0  0  0  0  0  0  0  0
   -3.6048   -0.1241    0.9200 H   0  0  0  0  0  0  0  0  0  0  0  0
  1  8  1  0  0  0  0
  1 10  2  0  0  0  0
  2  3  1  0  0  0  0
  2  5  1  0  0  0  0
  2  6  1  0  0  0  0
  2 11  1  0  0  0  0
  3  4  1  0  0  0  0
  3 12  1  0  0  0  0
  3 13  1  0  0  0  0
  4  7  1  0  0  0  0
  4  8  2  0  0  0  0
  5 14  1  0  0  0  0
  5 15  1  0  0  0  0
  5 16  1  0  0  0  0
  6 17  1  0  0  0  0
  6 18  1  0  0  0  0
  6 19  1  0  0  0  0
  7  9  2  0  0  0  0
  7 20  1  0  0  0  0
  8 21  1  0  0  0  0
  9 10  1  0  0  0  0
  9 22  1  0  0  0  0
 10 23  1  0  0  0  0
M  END
> <PUBCHEM_COMPOUND_CID>
61715

> <PUBCHEM_CONFORMER_RMSD>
0.4

> <PUBCHEM_CONFORMER_DIVERSEORDER>
1
2

> <PUBCHEM_MMFF94_PARTIAL_CHARGES>
11
1 -0.62
10 0.16
20 0.15
21 0.15
22 0.15
23 0.15
3 0.14
4 -0.14
7 -0.15
8 0.16
9 -0.15

> <PUBCHEM_EFFECTIVE_ROTOR_COUNT>
2

> <PUBCHEM_PHARMACOPHORE_FEATURES>
3
1 1 acceptor
3 2 5 6 hydrophobe
6 1 4 7 8 9 10 rings

> <PUBCHEM_HEAVY_ATOM_COUNT>
10

> <PUBCHEM_ATOM_DEF_STEREO_COUNT>
0

> <PUBCHEM_ATOM_UDEF_STEREO_COUNT>
0

> <PUBCHEM_BOND_DEF_STEREO_COUNT>
0

> <PUBCHEM_BOND_UDEF_STEREO_COUNT>
0

> <PUBCHEM_ISOTOPIC_ATOM_COUNT>
0

> <PUBCHEM_COMPONENT_COUNT>
1

> <PUBCHEM_CACTVS_TAUTO_COUNT>
1

> <PUBCHEM_CONFORMER_ID>
0000F11300000001

> <PUBCHEM_MMFF94_ENERGY>
21.9567

> <PUBCHEM_FEATURE_SELFOVERLAP>
15.223

> <PUBCHEM_SHAPE_FINGERPRINT>
10857977 72 18339646745144168377
12423570 1 9356469590313445156
12696612 119 18342173427286761816
12932764 1 18411705386911406548
15076042 46 18266176136835656064
15775835 57 18409737231175432344
16945 1 18262241130775133565
19973954 147 18131638871837961616
20645464 45 18060138734584897582
20653085 51 10807666626425419647
21040471 1 18193854660170676813
22445834 79 18187080598938685386
23552423 10 18114472265386052902
29004967 10 14996286941610018276
369184 2 18412258437144578029
5084963 1 18041003881981453908

> <PUBCHEM_SHAPE_MULTIPOLES>
200.81
4.02
1.48
0.96
0.33
0.01
0.09
0.02
-1.07
-0.03
-0.22
0.34
-0.03
0.05

> <PUBCHEM_SHAPE_SELFOVERLAP>
403.82

> <PUBCHEM_SHAPE_VOLUME>
118

> <PUBCHEM_COORDINATE_TYPE>
2
5
10

$$$$
