61746
  -OEChem-11232109443D

 43 44  0     1  0  0  0  0  0999 V2000
   -0.1300   -0.5362   -0.0953 O   0  0  0  0  0  0  0  0  0  0  0  0
   -1.7809   -2.1264   -0.3067 O   0  0  0  0  0  0  0  0  0  0  0  0
   -4.0708   -1.2191    0.8915 N   0  0  0  0  0  0  0  0  0  0  0  0
    2.2431   -0.8930   -0.0193 C   0  0  1  0  0  0  0  0  0  0  0  0
    0.8716   -1.5539   -0.1380 C   0  0  0  0  0  0  0  0  0  0  0  0
    2.5214    0.0235   -1.2149 C   0  0  0  0  0  0  0  0  0  0  0  0
    2.3555   -0.1020    1.2938 C   0  0  0  0  0  0  0  0  0  0  0  0
    3.9190    0.6440   -1.1239 C   0  0  0  0  0  0  0  0  0  0  0  0
    4.2761    1.1356    0.2565 C   0  0  0  0  0  0  0  0  0  0  0  0
    3.5522    0.8026    1.3390 C   0  0  0  0  0  0  0  0  0  0  0  0
    0.6298   -2.5215    1.0202 C   0  0  0  0  0  0  0  0  0  0  0  0
    0.7361   -2.2757   -1.4774 C   0  0  0  0  0  0  0  0  0  0  0  0
    5.4870    2.0157    0.3521 C   0  0  0  0  0  0  0  0  0  0  0  0
   -1.4150   -0.9670   -0.1904 C   0  0  0  0  0  0  0  0  0  0  0  0
   -2.3541    0.1816   -0.1350 C   0  0  0  0  0  0  0  0  0  0  0  0
   -3.6210    0.0233    0.3913 C   0  0  0  0  0  0  0  0  0  0  0  0
   -1.9123    1.3960   -0.6254 C   0  0  0  0  0  0  0  0  0  0  0  0
   -4.4803    1.1215    0.4294 C   0  0  0  0  0  0  0  0  0  0  0  0
   -2.7717    2.4940   -0.5873 C   0  0  0  0  0  0  0  0  0  0  0  0
   -4.0557    2.3567   -0.0601 C   0  0  0  0  0  0  0  0  0  0  0  0
    3.0163   -1.6757   -0.0143 H   0  0  0  0  0  0  0  0  0  0  0  0
    1.7766    0.8292   -1.2571 H   0  0  0  0  0  0  0  0  0  0  0  0
    2.4641   -0.5118   -2.1681 H   0  0  0  0  0  0  0  0  0  0  0  0
    2.4326   -0.8006    2.1353 H   0  0  0  0  0  0  0  0  0  0  0  0
    1.4688    0.5176    1.4722 H   0  0  0  0  0  0  0  0  0  0  0  0
    3.9766    1.4723   -1.8402 H   0  0  0  0  0  0  0  0  0  0  0  0
    4.6666   -0.0986   -1.4301 H   0  0  0  0  0  0  0  0  0  0  0  0
    3.8284    1.1928    2.3152 H   0  0  0  0  0  0  0  0  0  0  0  0
    0.3511   -1.9931    1.9391 H   0  0  0  0  0  0  0  0  0  0  0  0
    1.5299   -3.1129    1.2261 H   0  0  0  0  0  0  0  0  0  0  0  0
   -0.1587   -3.2558    0.8315 H   0  0  0  0  0  0  0  0  0  0  0  0
    1.6636   -2.8017   -1.7338 H   0  0  0  0  0  0  0  0  0  0  0  0
   -0.0371   -3.0504   -1.4823 H   0  0  0  0  0  0  0  0  0  0  0  0
    0.4888   -1.5894   -2.2956 H   0  0  0  0  0  0  0  0  0  0  0  0
    6.3693    1.4881   -0.0245 H   0  0  0  0  0  0  0  0  0  0  0  0
    5.6958    2.3209    1.3828 H   0  0  0  0  0  0  0  0  0  0  0  0
    5.3445    2.9240   -0.2424 H   0  0  0  0  0  0  0  0  0  0  0  0
   -0.9247    1.5307   -1.0567 H   0  0  0  0  0  0  0  0  0  0  0  0
   -5.4837    1.0287    0.8373 H   0  0  0  0  0  0  0  0  0  0  0  0
   -2.4427    3.4552   -0.9717 H   0  0  0  0  0  0  0  0  0  0  0  0
   -4.7250    3.2116   -0.0315 H   0  0  0  0  0  0  0  0  0  0  0  0
   -3.4645   -2.0274    0.8919 H   0  0  0  0  0  0  0  0  0  0  0  0
   -5.0046   -1.2973    1.2728 H   0  0  0  0  0  0  0  0  0  0  0  0
  1  5  1  0  0  0  0
  1 14  1  0  0  0  0
  2 14  2  0  0  0  0
  3 16  1  0  0  0  0
  3 42  1  0  0  0  0
  3 43  1  0  0  0  0
  4  5  1  0  0  0  0
  4  6  1  0  0  0  0
  4  7  1  0  0  0  0
  4 21  1  0  0  0  0
  5 11  1  0  0  0  0
  5 12  1  0  0  0  0
  6  8  1  0  0  0  0
  6 22  1  0  0  0  0
  6 23  1  0  0  0  0
  7 10  1  0  0  0  0
  7 24  1  0  0  0  0
  7 25  1  0  0  0  0
  8  9  1  0  0  0  0
  8 26  1  0  0  0  0
  8 27  1  0  0  0  0
  9 10  2  0  0  0  0
  9 13  1  0  0  0  0
 10 28  1  0  0  0  0
 11 29  1  0  0  0  0
 11 30  1  0  0  0  0
 11 31  1  0  0  0  0
 12 32  1  0  0  0  0
 12 33  1  0  0  0  0
 12 34  1  0  0  0  0
 13 35  1  0  0  0  0
 13 36  1  0  0  0  0
 13 37  1  0  0  0  0
 14 15  1  0  0  0  0
 15 16  1  0  0  0  0
 15 17  2  0  0  0  0
 16 18  2  0  0  0  0
 17 19  1  0  0  0  0
 17 38  1  0  0  0  0
 18 20  1  0  0  0  0
 18 39  1  0  0  0  0
 19 20  2  0  0  0  0
 19 40  1  0  0  0  0
 20 41  1  0  0  0  0
M  END
> <PUBCHEM_COMPOUND_CID>
61746

> <PUBCHEM_CONFORMER_RMSD>
0.6

> <PUBCHEM_CONFORMER_DIVERSEORDER>
1
40
22
54
30
37
58
15
38
46
53
57
48
56
36
34
10
29
52
9
39
24
33
55
50
51
16
28
21
42
47
41
27
45
25
49
32
26
31
3
20
35
5
19
6
23
43
44
13
18
8
17
14
12
11
7
4
2

> <PUBCHEM_MMFF94_PARTIAL_CHARGES>
23
1 -0.43
10 -0.29
13 0.14
14 0.63
15 0.09
16 0.1
17 -0.15
18 -0.15
19 -0.15
2 -0.57
20 -0.15
28 0.15
3 -0.9
38 0.15
39 0.15
40 0.15
41 0.15
42 0.4
43 0.4
5 0.28
7 0.14
8 0.14
9 -0.28

> <PUBCHEM_EFFECTIVE_ROTOR_COUNT>
4.8

> <PUBCHEM_PHARMACOPHORE_FEATURES>
6
1 2 acceptor
1 3 cation
1 3 donor
3 5 11 12 hydrophobe
6 15 16 17 18 19 20 rings
6 4 6 7 8 9 10 rings

> <PUBCHEM_HEAVY_ATOM_COUNT>
20

> <PUBCHEM_ATOM_DEF_STEREO_COUNT>
0

> <PUBCHEM_ATOM_UDEF_STEREO_COUNT>
1

> <PUBCHEM_BOND_DEF_STEREO_COUNT>
0

> <PUBCHEM_BOND_UDEF_STEREO_COUNT>
0

> <PUBCHEM_ISOTOPIC_ATOM_COUNT>
0

> <PUBCHEM_COMPONENT_COUNT>
1

> <PUBCHEM_CACTVS_TAUTO_COUNT>
2

> <PUBCHEM_CONFORMER_ID>
0000F13200000001

> <PUBCHEM_MMFF94_ENERGY>
67.1917

> <PUBCHEM_FEATURE_SELFOVERLAP>
30.446

> <PUBCHEM_SHAPE_FINGERPRINT>
10165383 225 17846228807462430611
10498660 4 18341050735398820273
10646746 165 18411138009221320884
10670039 82 18333741217042498100
11595378 159 17749104482862379017
11715629 250 18413672396086512759
12363563 72 7853570244550961744
12390115 104 18341626913814414761
12403259 118 17894632573524034133
12403259 415 18342749506970628580
12596602 18 17023463174345531104
12788726 201 17174076592237801858
12892183 10 16298656210095654184
13140716 1 18048040963085158323
13544653 18 11746934295993332974
13965767 371 17677606450212362484
14123255 52 18412543197697482180
14178342 30 17749399126667807363
14251764 38 17757252796270181501
14289901 80 18041006098601414299
14341114 328 17240490220943204864
14739800 52 17977086179743575632
15209294 21 18334009519211761644
17834072 32 18411697707879731056
1798214 55 18411981330139421820
18186145 218 17561363993611702722
193927 3 8070028908483786232
19862831 5 13110962028579618380
20374829 77 9655583997793376484
20626108 58 10591753269100166328
20645477 56 18059015111274595770
20645477 70 16701755894927742918
20715895 44 17683508547269128229
21250096 35 8286199452856272716
21524375 3 18412262848234642854
21756936 100 18335976588748239160
21864079 5 18411692197346759676
23227448 37 18270398411821000333
23403322 49 9007057976255932801
23503958 25 18412549807657730929
23557571 272 17987240104325143174
23559900 14 17977381638516168187
2838139 119 18059565949753103984
2916195 48 18272085058811512272
3524813 1 18272644696823006464
392239 28 17678754546599511307
4028521 119 18059859462826423432
474 4 17894920611073174628
4921388 177 15194990704662509053
5104073 3 18261962838601253107
633830 44 18411131403493301438
6442390 28 18411144653330447710
7064713 232 18333454222436992204
7097593 13 17606663739263400875
76465 3 10881694524110452553
7808743 9 18338796848800650480
7970288 3 9007052474366669992
90316 7 17168140088224707301
9925002 15 17694783325904299839
9981440 41 18187086161037430691

> <PUBCHEM_SHAPE_MULTIPOLES>
394.87
9.89
2.77
1.2
1.98
0.27
0.03
-7.84
-1.51
-0.76
0.18
0.82
0.24
0.69

> <PUBCHEM_SHAPE_SELFOVERLAP>
832.101

> <PUBCHEM_SHAPE_VOLUME>
220.6

> <PUBCHEM_COORDINATE_TYPE>
2
5
10

$$$$
