61840
  -OEChem-11232109173D

 32 31  0     1  0  0  0  0  0999 V2000
   -2.9351   -1.8955   -0.8235 O   0  0  0  0  0  0  0  0  0  0  0  0
   -3.3771    0.2476   -0.2224 O   0  0  0  0  0  0  0  0  0  0  0  0
   -0.1484    1.0163    0.0165 C   0  0  1  0  0  0  0  0  0  0  0  0
    0.8475    0.0736   -0.6925 C   0  0  0  0  0  0  0  0  0  0  0  0
   -0.8236    0.3272    1.2304 C   0  0  0  0  0  0  0  0  0  0  0  0
    0.4726    2.3677    0.4415 C   0  0  0  0  0  0  0  0  0  0  0  0
    2.0497   -0.3848    0.1444 C   0  0  0  0  0  0  0  0  0  0  0  0
   -1.5757   -0.9639    0.8866 C   0  0  0  0  0  0  0  0  0  0  0  0
    2.9892   -1.3815   -0.5396 C   0  0  0  0  0  0  0  0  0  0  0  0
    1.0689    3.1961   -0.6886 C   0  0  0  0  0  0  0  0  0  0  0  0
    4.1432   -1.8327    0.3422 C   0  0  0  0  0  0  0  0  0  0  0  0
   -2.7113   -0.7703   -0.0951 C   0  0  0  0  0  0  0  0  0  0  0  0
   -0.9318    1.2528   -0.7156 H   0  0  0  0  0  0  0  0  0  0  0  0
    1.2271    0.5702   -1.5941 H   0  0  0  0  0  0  0  0  0  0  0  0
    0.3183   -0.8090   -1.0691 H   0  0  0  0  0  0  0  0  0  0  0  0
   -0.0834    0.1161    2.0105 H   0  0  0  0  0  0  0  0  0  0  0  0
   -1.5370    1.0335    1.6753 H   0  0  0  0  0  0  0  0  0  0  0  0
   -0.3098    2.9719    0.9187 H   0  0  0  0  0  0  0  0  0  0  0  0
    1.2391    2.2056    1.2084 H   0  0  0  0  0  0  0  0  0  0  0  0
    2.6366    0.4920    0.4422 H   0  0  0  0  0  0  0  0  0  0  0  0
    1.6914   -0.8493    1.0697 H   0  0  0  0  0  0  0  0  0  0  0  0
   -2.0158   -1.3754    1.8026 H   0  0  0  0  0  0  0  0  0  0  0  0
   -0.8832   -1.7183    0.5008 H   0  0  0  0  0  0  0  0  0  0  0  0
    2.4159   -2.2630   -0.8501 H   0  0  0  0  0  0  0  0  0  0  0  0
    3.3936   -0.9277   -1.4521 H   0  0  0  0  0  0  0  0  0  0  0  0
    1.3781    4.1769   -0.3132 H   0  0  0  0  0  0  0  0  0  0  0  0
    1.9519    2.7123   -1.1158 H   0  0  0  0  0  0  0  0  0  0  0  0
    0.3370    3.3531   -1.4869 H   0  0  0  0  0  0  0  0  0  0  0  0
    4.7597   -0.9802    0.6442 H   0  0  0  0  0  0  0  0  0  0  0  0
    3.7737   -2.3269    1.2463 H   0  0  0  0  0  0  0  0  0  0  0  0
    4.7802   -2.5404   -0.1974 H   0  0  0  0  0  0  0  0  0  0  0  0
   -3.6778   -1.7807   -1.4539 H   0  0  0  0  0  0  0  0  0  0  0  0
  1 12  1  0  0  0  0
  1 32  1  0  0  0  0
  2 12  2  0  0  0  0
  3  4  1  0  0  0  0
  3  5  1  0  0  0  0
  3  6  1  0  0  0  0
  3 13  1  0  0  0  0
  4  7  1  0  0  0  0
  4 14  1  0  0  0  0
  4 15  1  0  0  0  0
  5  8  1  0  0  0  0
  5 16  1  0  0  0  0
  5 17  1  0  0  0  0
  6 10  1  0  0  0  0
  6 18  1  0  0  0  0
  6 19  1  0  0  0  0
  7  9  1  0  0  0  0
  7 20  1  0  0  0  0
  7 21  1  0  0  0  0
  8 12  1  0  0  0  0
  8 22  1  0  0  0  0
  8 23  1  0  0  0  0
  9 11  1  0  0  0  0
  9 24  1  0  0  0  0
  9 25  1  0  0  0  0
 10 26  1  0  0  0  0
 10 27  1  0  0  0  0
 10 28  1  0  0  0  0
 11 29  1  0  0  0  0
 11 30  1  0  0  0  0
 11 31  1  0  0  0  0
M  END
> <PUBCHEM_COMPOUND_CID>
61840

> <PUBCHEM_CONFORMER_RMSD>
0.8

> <PUBCHEM_CONFORMER_DIVERSEORDER>
1
66
86
75
52
60
53
7
67
33
3
85
79
64
45
38
88
83
65
23
48
72
29
62
63
82
80
46
87
34
74
20
71
22
15
18
37
61
26
70
24
28
77
6
68
12
76
57
84
78
14
49
54
39
30
69
59
73
2
56
9
25
17
51
58
40
36
47
4
55
81
32
41
16
5
19
43
21
27
11
13
42
31
10
44
8
50
35

> <PUBCHEM_MMFF94_PARTIAL_CHARGES>
5
1 -0.65
12 0.66
2 -0.57
32 0.5
8 0.06

> <PUBCHEM_EFFECTIVE_ROTOR_COUNT>
7

> <PUBCHEM_PHARMACOPHORE_FEATURES>
9
1 1 acceptor
1 10 hydrophobe
1 11 hydrophobe
1 2 acceptor
3 1 2 12 anion
3 3 4 6 hydrophobe
3 4 7 9 hydrophobe
4 3 5 6 8 hydrophobe
5 3 4 6 7 9 hydrophobe

> <PUBCHEM_HEAVY_ATOM_COUNT>
12

> <PUBCHEM_ATOM_DEF_STEREO_COUNT>
0

> <PUBCHEM_ATOM_UDEF_STEREO_COUNT>
1

> <PUBCHEM_BOND_DEF_STEREO_COUNT>
0

> <PUBCHEM_BOND_UDEF_STEREO_COUNT>
0

> <PUBCHEM_ISOTOPIC_ATOM_COUNT>
0

> <PUBCHEM_COMPONENT_COUNT>
1

> <PUBCHEM_CACTVS_TAUTO_COUNT>
1

> <PUBCHEM_CONFORMER_ID>
0000F19000000001

> <PUBCHEM_MMFF94_ENERGY>
7.8158

> <PUBCHEM_FEATURE_SELFOVERLAP>
53.262

> <PUBCHEM_SHAPE_FINGERPRINT>
1 1 17906457984242075236
10922049 32 9007051396508245792
15279308 128 18263638464183534325
1741750 31 8862356714655412614
17834072 14 18409439285241689112
18511873 20 18341618088231199113
19021347 11 17980764062315456964
20524608 308 17689160011270347458
20645477 70 18193265528471691527
20653085 51 13407378273174412366
20671657 53 18410295813157701870
20711985 344 18118116970644666888
20871998 184 17906189355633541408
22802520 49 17969508280609935113
23402539 116 18125993863377380749
23419403 2 17843651462081461784
23526113 38 17967814997995113130
23532345 88 18268423723407756495
23552423 10 18196940083145480483
23598291 2 18271817873164212223
58734987 140 18336550498888805796
58734987 36 18408603660319751307
6338986 31 18410858728930739390
7364860 26 18268149953423260320
81228 2 18122078502507611856
9939556 21 18270967955023662529

> <PUBCHEM_SHAPE_MULTIPOLES>
235.22
5.59
2.91
0.98
1.91
2.77
0.11
-5.32
-0.49
1.08
-0.5
-0.19
-0.03
-0.46

> <PUBCHEM_SHAPE_SELFOVERLAP>
428.189

> <PUBCHEM_SHAPE_VOLUME>
150.3

> <PUBCHEM_COORDINATE_TYPE>
2
5
10

$$$$
