61845
  -OEChem-11232109463D

 17 16  0     1  0  0  0  0  0999 V2000
    1.4553   -0.5286   -0.7835 S   0  0  0  0  0  0  0  0  0  0  0  0
   -2.2471   -0.8309   -0.3987 O   0  0  0  0  0  0  0  0  0  0  0  0
    0.8179    0.7232    0.3903 C   0  0  2  0  0  0  0  0  0  0  0  0
   -0.5593    0.3200    0.9244 C   0  0  0  0  0  0  0  0  0  0  0  0
    0.7536    2.0730   -0.3194 C   0  0  0  0  0  0  0  0  0  0  0  0
   -1.6302    0.1961   -0.1380 C   0  0  0  0  0  0  0  0  0  0  0  0
    1.4097   -1.9528    0.3249 C   0  0  0  0  0  0  0  0  0  0  0  0
    1.5224    0.8011    1.2259 H   0  0  0  0  0  0  0  0  0  0  0  0
   -0.9123    1.0882    1.6245 H   0  0  0  0  0  0  0  0  0  0  0  0
   -0.5258   -0.6080    1.5031 H   0  0  0  0  0  0  0  0  0  0  0  0
    0.3244    2.8352    0.3405 H   0  0  0  0  0  0  0  0  0  0  0  0
    1.7590    2.4149   -0.5922 H   0  0  0  0  0  0  0  0  0  0  0  0
    0.1551    2.0477   -1.2361 H   0  0  0  0  0  0  0  0  0  0  0  0
   -1.8671    1.1262   -0.6819 H   0  0  0  0  0  0  0  0  0  0  0  0
    0.3929   -2.3390    0.4277 H   0  0  0  0  0  0  0  0  0  0  0  0
    1.8228   -1.7061    1.3064 H   0  0  0  0  0  0  0  0  0  0  0  0
    2.0214   -2.7501   -0.1073 H   0  0  0  0  0  0  0  0  0  0  0  0
  1  3  1  0  0  0  0
  1  7  1  0  0  0  0
  2  6  2  0  0  0  0
  3  4  1  0  0  0  0
  3  5  1  0  0  0  0
  3  8  1  0  0  0  0
  4  6  1  0  0  0  0
  4  9  1  0  0  0  0
  4 10  1  0  0  0  0
  5 11  1  0  0  0  0
  5 12  1  0  0  0  0
  5 13  1  0  0  0  0
  6 14  1  0  0  0  0
  7 15  1  0  0  0  0
  7 16  1  0  0  0  0
  7 17  1  0  0  0  0
M  END
> <PUBCHEM_COMPOUND_CID>
61845

> <PUBCHEM_CONFORMER_RMSD>
0.4

> <PUBCHEM_CONFORMER_DIVERSEORDER>
3
22
25
8
11
5
26
6
1
14
27
24
7
9
21
20
2
12
4
23
16
18
10
17
13
19
15

> <PUBCHEM_MMFF94_PARTIAL_CHARGES>
7
1 -0.46
14 0.06
2 -0.57
3 0.23
4 0.06
6 0.45
7 0.23

> <PUBCHEM_EFFECTIVE_ROTOR_COUNT>
3

> <PUBCHEM_PHARMACOPHORE_FEATURES>
3
1 2 acceptor
1 5 hydrophobe
1 7 hydrophobe

> <PUBCHEM_HEAVY_ATOM_COUNT>
7

> <PUBCHEM_ATOM_DEF_STEREO_COUNT>
0

> <PUBCHEM_ATOM_UDEF_STEREO_COUNT>
1

> <PUBCHEM_BOND_DEF_STEREO_COUNT>
0

> <PUBCHEM_BOND_UDEF_STEREO_COUNT>
0

> <PUBCHEM_ISOTOPIC_ATOM_COUNT>
0

> <PUBCHEM_COMPONENT_COUNT>
1

> <PUBCHEM_CACTVS_TAUTO_COUNT>
2

> <PUBCHEM_CONFORMER_ID>
0000F19500000003

> <PUBCHEM_MMFF94_ENERGY>
10.7704

> <PUBCHEM_FEATURE_SELFOVERLAP>
15.223

> <PUBCHEM_SHAPE_FINGERPRINT>
137420 1 10297114728570246340
16714656 1 17617946824476507569
18185500 45 18267874882205929678
21040471 1 17691683810925389344
23552333 60 18060147577985922259
23552423 10 18340488958340164271
23552449 11 18059278903438360819
29004967 10 18335708221326011104
5943 1 17699326241414299680

> <PUBCHEM_SHAPE_MULTIPOLES>
142.04
2.41
1.98
0.91
0.39
0.68
-0.03
-1.43
0.34
-0.39
0.11
-0.06
-0.02
-0.28

> <PUBCHEM_SHAPE_SELFOVERLAP>
240.025

> <PUBCHEM_SHAPE_VOLUME>
97.2

> <PUBCHEM_COORDINATE_TYPE>
2
5
10

$$$$
