61897
  -OEChem-11232109213D

 23 23  0     1  0  0  0  0  0999 V2000
   -0.7371   -0.3798    0.5354 O   0  0  0  0  0  0  0  0  0  0  0  0
    2.5072   -1.8745    0.2252 O   0  0  0  0  0  0  0  0  0  0  0  0
    1.3622    0.1471   -0.5079 C   0  0  2  0  0  0  0  0  0  0  0  0
    1.9720    0.8484    0.7159 C   0  0  0  0  0  0  0  0  0  0  0  0
   -0.1539    0.1828   -0.5301 C   0  0  0  0  0  0  0  0  0  0  0  0
   -1.0237    0.6775   -1.4271 C   0  0  0  0  0  0  0  0  0  0  0  0
    1.6043    2.3244    0.8005 C   0  0  0  0  0  0  0  0  0  0  0  0
   -2.0710   -0.2407    0.3153 C   0  0  0  0  0  0  0  0  0  0  0  0
    1.8001   -1.3056   -0.6005 C   0  0  0  0  0  0  0  0  0  0  0  0
   -2.2992    0.4032   -0.8785 C   0  0  0  0  0  0  0  0  0  0  0  0
   -2.9609   -0.7828    1.3517 C   0  0  0  0  0  0  0  0  0  0  0  0
    1.7388    0.6359   -1.4160 H   0  0  0  0  0  0  0  0  0  0  0  0
    1.6561    0.3510    1.6418 H   0  0  0  0  0  0  0  0  0  0  0  0
    3.0650    0.7610    0.6760 H   0  0  0  0  0  0  0  0  0  0  0  0
   -0.8016    1.1748   -2.3599 H   0  0  0  0  0  0  0  0  0  0  0  0
    2.1254    2.7923    1.6420 H   0  0  0  0  0  0  0  0  0  0  0  0
    0.5305    2.4646    0.9568 H   0  0  0  0  0  0  0  0  0  0  0  0
    1.8941    2.8536   -0.1129 H   0  0  0  0  0  0  0  0  0  0  0  0
    1.4554   -1.8454   -1.5006 H   0  0  0  0  0  0  0  0  0  0  0  0
   -3.2630    0.6460   -1.3027 H   0  0  0  0  0  0  0  0  0  0  0  0
   -2.7727   -0.2952    2.3133 H   0  0  0  0  0  0  0  0  0  0  0  0
   -4.0123   -0.6253    1.0919 H   0  0  0  0  0  0  0  0  0  0  0  0
   -2.7990   -1.8583    1.4733 H   0  0  0  0  0  0  0  0  0  0  0  0
  1  5  1  0  0  0  0
  1  8  1  0  0  0  0
  2  9  2  0  0  0  0
  3  4  1  0  0  0  0
  3  5  1  0  0  0  0
  3  9  1  0  0  0  0
  3 12  1  0  0  0  0
  4  7  1  0  0  0  0
  4 13  1  0  0  0  0
  4 14  1  0  0  0  0
  5  6  2  0  0  0  0
  6 10  1  0  0  0  0
  6 15  1  0  0  0  0
  7 16  1  0  0  0  0
  7 17  1  0  0  0  0
  7 18  1  0  0  0  0
  8 10  2  0  0  0  0
  8 11  1  0  0  0  0
  9 19  1  0  0  0  0
 10 20  1  0  0  0  0
 11 21  1  0  0  0  0
 11 22  1  0  0  0  0
 11 23  1  0  0  0  0
M  END
> <PUBCHEM_COMPOUND_CID>
61897

> <PUBCHEM_CONFORMER_RMSD>
0.6

> <PUBCHEM_CONFORMER_DIVERSEORDER>
3
23
10
24
26
9
8
18
19
15
20
2
13
6
12
16
21
11
5
22
25
1
14
17
7
4

> <PUBCHEM_MMFF94_PARTIAL_CHARGES>
12
1 -0.28
10 -0.15
11 0.18
15 0.15
19 0.06
2 -0.57
20 0.15
3 0.24
5 -0.04
6 -0.15
8 -0.04
9 0.45

> <PUBCHEM_EFFECTIVE_ROTOR_COUNT>
3

> <PUBCHEM_PHARMACOPHORE_FEATURES>
4
1 1 acceptor
1 2 acceptor
1 7 hydrophobe
5 1 5 6 8 10 rings

> <PUBCHEM_HEAVY_ATOM_COUNT>
11

> <PUBCHEM_ATOM_DEF_STEREO_COUNT>
0

> <PUBCHEM_ATOM_UDEF_STEREO_COUNT>
1

> <PUBCHEM_BOND_DEF_STEREO_COUNT>
0

> <PUBCHEM_BOND_UDEF_STEREO_COUNT>
0

> <PUBCHEM_ISOTOPIC_ATOM_COUNT>
0

> <PUBCHEM_COMPONENT_COUNT>
1

> <PUBCHEM_CACTVS_TAUTO_COUNT>
2

> <PUBCHEM_CONFORMER_ID>
0000F1C900000003

> <PUBCHEM_MMFF94_ENERGY>
6.9874

> <PUBCHEM_FEATURE_SELFOVERLAP>
20.297

> <PUBCHEM_SHAPE_FINGERPRINT>
10857977 72 17604429729557280033
12326174 3 18060143145758988372
12932741 1 18187074040554954469
12932764 1 18343028812936048871
13380536 127 15841261666273889855
14252887 29 17097803376060394561
15775835 57 16558196028242017337
16945 1 18341609373183587684
17357990 137 16414934018255304353
17841504 4 18341334409387717442
18380122 1 18042963357841931957
20379382 53 18343032106917644716
20539784 86 18199486508809297441
20711985 344 16443062755904697527
20715346 28 18187081780286436253
21040471 1 16735215021234192213
21061003 4 18199469870370041738
2748010 2 17967247607256621023
29004967 10 18341328907719240486
369184 2 18202277000906993063
430814 3 17201370804007191520
5084963 1 17967541142300999575
528862 383 18131350855599354010
81228 2 17478327531421013784

> <PUBCHEM_SHAPE_MULTIPOLES>
214.64
4.04
1.72
1.27
1.31
0.21
0.06
-0.68
-1.17
-1.8
-0.35
0.67
0.14
0.82

> <PUBCHEM_SHAPE_SELFOVERLAP>
435.397

> <PUBCHEM_SHAPE_VOLUME>
127.2

> <PUBCHEM_COORDINATE_TYPE>
2
5
10

$$$$
