61917
  -OEChem-11232108553D

 22 21  0     1  0  0  0  0  0999 V2000
   -2.4603   -1.0662    0.1448 O   0  0  0  0  0  0  0  0  0  0  0  0
    0.7063    0.2965   -0.5104 C   0  0  2  0  0  0  0  0  0  0  0  0
   -0.7957    0.6475   -0.3401 C   0  0  2  0  0  0  0  0  0  0  0  0
    1.1558   -0.8577    0.4117 C   0  0  0  0  0  0  0  0  0  0  0  0
    1.5781    1.5430   -0.3116 C   0  0  0  0  0  0  0  0  0  0  0  0
   -1.1582    1.2611    1.0108 C   0  0  0  0  0  0  0  0  0  0  0  0
    2.6181   -1.2434    0.2268 C   0  0  0  0  0  0  0  0  0  0  0  0
   -1.6442   -0.5808   -0.6319 C   0  0  0  0  0  0  0  0  0  0  0  0
    0.8475   -0.0390   -1.5476 H   0  0  0  0  0  0  0  0  0  0  0  0
   -1.0659    1.3775   -1.1150 H   0  0  0  0  0  0  0  0  0  0  0  0
    0.5472   -1.7479    0.2165 H   0  0  0  0  0  0  0  0  0  0  0  0
    1.0005   -0.5910    1.4630 H   0  0  0  0  0  0  0  0  0  0  0  0
    2.5937    1.3748   -0.6846 H   0  0  0  0  0  0  0  0  0  0  0  0
    1.6520    1.8235    0.7440 H   0  0  0  0  0  0  0  0  0  0  0  0
    1.1729    2.3958   -0.8669 H   0  0  0  0  0  0  0  0  0  0  0  0
   -0.6251    2.2004    1.1841 H   0  0  0  0  0  0  0  0  0  0  0  0
   -0.9397    0.5810    1.8401 H   0  0  0  0  0  0  0  0  0  0  0  0
   -2.2303    1.4852    1.0543 H   0  0  0  0  0  0  0  0  0  0  0  0
    2.8383   -1.4620   -0.8227 H   0  0  0  0  0  0  0  0  0  0  0  0
    3.2912   -0.4517    0.5684 H   0  0  0  0  0  0  0  0  0  0  0  0
    2.8446   -2.1400    0.8133 H   0  0  0  0  0  0  0  0  0  0  0  0
   -1.4967   -1.0250   -1.6321 H   0  0  0  0  0  0  0  0  0  0  0  0
  1  8  2  0  0  0  0
  2  3  1  0  0  0  0
  2  4  1  0  0  0  0
  2  5  1  0  0  0  0
  2  9  1  0  0  0  0
  3  6  1  0  0  0  0
  3  8  1  0  0  0  0
  3 10  1  0  0  0  0
  4  7  1  0  0  0  0
  4 11  1  0  0  0  0
  4 12  1  0  0  0  0
  5 13  1  0  0  0  0
  5 14  1  0  0  0  0
  5 15  1  0  0  0  0
  6 16  1  0  0  0  0
  6 17  1  0  0  0  0
  6 18  1  0  0  0  0
  7 19  1  0  0  0  0
  7 20  1  0  0  0  0
  7 21  1  0  0  0  0
  8 22  1  0  0  0  0
M  END
> <PUBCHEM_COMPOUND_CID>
61917

> <PUBCHEM_CONFORMER_RMSD>
0.6

> <PUBCHEM_CONFORMER_DIVERSEORDER>
1
11
18
10
9
8
4
25
16
3
22
14
20
13
7
21
5
2
6
17
19
15
23
12
26
24

> <PUBCHEM_MMFF94_PARTIAL_CHARGES>
4
1 -0.57
22 0.06
3 0.06
8 0.45

> <PUBCHEM_EFFECTIVE_ROTOR_COUNT>
3

> <PUBCHEM_PHARMACOPHORE_FEATURES>
4
1 1 acceptor
1 5 hydrophobe
1 6 hydrophobe
1 7 hydrophobe

> <PUBCHEM_HEAVY_ATOM_COUNT>
8

> <PUBCHEM_ATOM_DEF_STEREO_COUNT>
0

> <PUBCHEM_ATOM_UDEF_STEREO_COUNT>
2

> <PUBCHEM_BOND_DEF_STEREO_COUNT>
0

> <PUBCHEM_BOND_UDEF_STEREO_COUNT>
0

> <PUBCHEM_ISOTOPIC_ATOM_COUNT>
0

> <PUBCHEM_COMPONENT_COUNT>
1

> <PUBCHEM_CACTVS_TAUTO_COUNT>
2

> <PUBCHEM_CONFORMER_ID>
0000F1DD00000001

> <PUBCHEM_MMFF94_ENERGY>
9.4424

> <PUBCHEM_FEATURE_SELFOVERLAP>
20.299

> <PUBCHEM_SHAPE_FINGERPRINT>
14128692 85 18409165519615431566
18185500 45 18263923241757967426
20653091 64 18408325488531672000
23552333 60 18339365265777551513
23552423 10 18334013912483173126
23552449 11 17968638506460880504
24536 1 17846222098612607989
29004967 10 17896319301796696765

> <PUBCHEM_SHAPE_MULTIPOLES>
158.77
3.22
1.62
0.88
0.49
0.3
0.08
-1.36
0.22
0.27
0.1
-0.17
0.14
-0.47

> <PUBCHEM_SHAPE_SELFOVERLAP>
285.97

> <PUBCHEM_SHAPE_VOLUME>
102.8

> <PUBCHEM_COORDINATE_TYPE>
2
5
10

$$$$
