61922
  -OEChem-11232109453D

 17 16  0     0  0  0  0  0  0999 V2000
   -2.5382    0.4425   -0.5204 S   0  0  0  0  0  0  0  0  0  0  0  0
    1.8984    1.0882    0.4685 O   0  0  0  0  0  0  0  0  0  0  0  0
    0.1262   -0.3150   -0.3354 C   0  0  0  0  0  0  0  0  0  0  0  0
   -0.8284    0.8345   -0.0415 C   0  0  0  0  0  0  0  0  0  0  0  0
    1.5690   -0.0109    0.0225 C   0  0  0  0  0  0  0  0  0  0  0  0
    2.5866   -1.0986   -0.2027 C   0  0  0  0  0  0  0  0  0  0  0  0
   -2.8136   -0.9408    0.6090 C   0  0  0  0  0  0  0  0  0  0  0  0
    0.1019   -0.5653   -1.4025 H   0  0  0  0  0  0  0  0  0  0  0  0
   -0.1452   -1.2063    0.2391 H   0  0  0  0  0  0  0  0  0  0  0  0
   -0.8047    1.1048    1.0200 H   0  0  0  0  0  0  0  0  0  0  0  0
   -0.5239    1.7257   -0.6011 H   0  0  0  0  0  0  0  0  0  0  0  0
    2.6154   -1.3575   -1.2638 H   0  0  0  0  0  0  0  0  0  0  0  0
    2.3220   -1.9757    0.3928 H   0  0  0  0  0  0  0  0  0  0  0  0
    3.5759   -0.7482    0.1043 H   0  0  0  0  0  0  0  0  0  0  0  0
   -2.3012   -1.8398    0.2583 H   0  0  0  0  0  0  0  0  0  0  0  0
   -3.8847   -1.1598    0.6411 H   0  0  0  0  0  0  0  0  0  0  0  0
   -2.4868   -0.6925    1.6221 H   0  0  0  0  0  0  0  0  0  0  0  0
  1  4  1  0  0  0  0
  1  7  1  0  0  0  0
  2  5  2  0  0  0  0
  3  4  1  0  0  0  0
  3  5  1  0  0  0  0
  3  8  1  0  0  0  0
  3  9  1  0  0  0  0
  4 10  1  0  0  0  0
  4 11  1  0  0  0  0
  5  6  1  0  0  0  0
  6 12  1  0  0  0  0
  6 13  1  0  0  0  0
  6 14  1  0  0  0  0
  7 15  1  0  0  0  0
  7 16  1  0  0  0  0
  7 17  1  0  0  0  0
M  END
> <PUBCHEM_COMPOUND_CID>
61922

> <PUBCHEM_CONFORMER_RMSD>
0.4

> <PUBCHEM_CONFORMER_DIVERSEORDER>
8
34
11
32
5
26
20
30
23
13
15
6
10
1
33
24
3
35
19
27
25
9
31
28
4
18
16
7
2
22
17
21
14
29
12

> <PUBCHEM_MMFF94_PARTIAL_CHARGES>
7
1 -0.46
2 -0.57
3 0.06
4 0.23
5 0.45
6 0.06
7 0.23

> <PUBCHEM_EFFECTIVE_ROTOR_COUNT>
3

> <PUBCHEM_PHARMACOPHORE_FEATURES>
2
1 2 acceptor
1 7 hydrophobe

> <PUBCHEM_HEAVY_ATOM_COUNT>
7

> <PUBCHEM_ATOM_DEF_STEREO_COUNT>
0

> <PUBCHEM_ATOM_UDEF_STEREO_COUNT>
0

> <PUBCHEM_BOND_DEF_STEREO_COUNT>
0

> <PUBCHEM_BOND_UDEF_STEREO_COUNT>
0

> <PUBCHEM_ISOTOPIC_ATOM_COUNT>
0

> <PUBCHEM_COMPONENT_COUNT>
1

> <PUBCHEM_CACTVS_TAUTO_COUNT>
3

> <PUBCHEM_CONFORMER_ID>
0000F1E200000008

> <PUBCHEM_MMFF94_ENERGY>
7.6362

> <PUBCHEM_FEATURE_SELFOVERLAP>
10.148

> <PUBCHEM_SHAPE_FINGERPRINT>
10857977 72 18261947561323582681
12932741 1 18334006181705648653
12932764 1 17917710231653177397
14325111 11 18410291406436782229
23552423 10 17967818240642771055
29004967 10 18411981385979018025
3248919 1 18335130999312485005
5460574 1 9079112271610985573

> <PUBCHEM_SHAPE_MULTIPOLES>
142.04
4.66
1.19
0.76
0.62
0.06
-0.02
1.12
0.11
-0.03
0.11
0.17
0.01
0.54

> <PUBCHEM_SHAPE_SELFOVERLAP>
239.331

> <PUBCHEM_SHAPE_VOLUME>
97.7

> <PUBCHEM_COORDINATE_TYPE>
2
5
10

$$$$
