61936
  -OEChem-11232108433D

 14 13  0     0  0  0  0  0  0999 V2000
   -3.0349   -0.2992   -0.0154 S   0  0  0  0  0  0  0  0  0  0  0  0
    1.2832    1.2606   -0.0128 O   0  0  0  0  0  0  0  0  0  0  0  0
   -0.2716   -0.5666   -0.0024 C   0  0  0  0  0  0  0  0  0  0  0  0
   -1.3874    0.4694    0.0275 C   0  0  0  0  0  0  0  0  0  0  0  0
    1.1189    0.0405    0.0001 C   0  0  0  0  0  0  0  0  0  0  0  0
    2.2918   -0.9048    0.0030 C   0  0  0  0  0  0  0  0  0  0  0  0
   -0.3532   -1.1837   -0.9050 H   0  0  0  0  0  0  0  0  0  0  0  0
   -0.3432   -1.2212    0.8742 H   0  0  0  0  0  0  0  0  0  0  0  0
   -1.3161    1.0823    0.9323 H   0  0  0  0  0  0  0  0  0  0  0  0
   -1.3053    1.1442   -0.8311 H   0  0  0  0  0  0  0  0  0  0  0  0
    2.2660   -1.5212   -0.8988 H   0  0  0  0  0  0  0  0  0  0  0  0
    2.2493   -1.5367    0.8934 H   0  0  0  0  0  0  0  0  0  0  0  0
    3.2252   -0.3354    0.0177 H   0  0  0  0  0  0  0  0  0  0  0  0
   -2.9169   -0.9814    1.1331 H   0  0  0  0  0  0  0  0  0  0  0  0
  1  4  1  0  0  0  0
  1 14  1  0  0  0  0
  2  5  2  0  0  0  0
  3  4  1  0  0  0  0
  3  5  1  0  0  0  0
  3  7  1  0  0  0  0
  3  8  1  0  0  0  0
  4  9  1  0  0  0  0
  4 10  1  0  0  0  0
  5  6  1  0  0  0  0
  6 11  1  0  0  0  0
  6 12  1  0  0  0  0
  6 13  1  0  0  0  0
M  END
> <PUBCHEM_COMPOUND_CID>
61936

> <PUBCHEM_CONFORMER_RMSD>
0.4

> <PUBCHEM_CONFORMER_DIVERSEORDER>
1
11
10
5
3
7
2
8
6
4
12
9

> <PUBCHEM_MMFF94_PARTIAL_CHARGES>
7
1 -0.41
14 0.18
2 -0.57
3 0.06
4 0.23
5 0.45
6 0.06

> <PUBCHEM_EFFECTIVE_ROTOR_COUNT>
2

> <PUBCHEM_PHARMACOPHORE_FEATURES>
1
1 2 acceptor

> <PUBCHEM_HEAVY_ATOM_COUNT>
6

> <PUBCHEM_ATOM_DEF_STEREO_COUNT>
0

> <PUBCHEM_ATOM_UDEF_STEREO_COUNT>
0

> <PUBCHEM_BOND_DEF_STEREO_COUNT>
0

> <PUBCHEM_BOND_UDEF_STEREO_COUNT>
0

> <PUBCHEM_ISOTOPIC_ATOM_COUNT>
0

> <PUBCHEM_COMPONENT_COUNT>
1

> <PUBCHEM_CACTVS_TAUTO_COUNT>
3

> <PUBCHEM_CONFORMER_ID>
0000F1F000000001

> <PUBCHEM_MMFF94_ENERGY>
4.3527

> <PUBCHEM_FEATURE_SELFOVERLAP>
5.074

> <PUBCHEM_SHAPE_FINGERPRINT>
12932741 1 17458631150482317587
139733 1 9294990372045344298
20096714 4 18411419556880179080
21040471 1 18266460004109137472
29004967 10 18339924818517440618
5460574 1 9223228546434905995

> <PUBCHEM_SHAPE_MULTIPOLES>
121.46
4.09
1.05
0.62
2.04
0.15
0
-0.81
0.02
-0.41
0
0.06
-0.02
-0.01

> <PUBCHEM_SHAPE_SELFOVERLAP>
204.861

> <PUBCHEM_SHAPE_VOLUME>
83.7

> <PUBCHEM_COORDINATE_TYPE>
2
5
10

$$$$
