61950
  -OEChem-11232108453D

 28 27  0     0  0  0  0  0  0999 V2000
    4.5644   -1.0970   -0.1148 O   0  0  0  0  0  0  0  0  0  0  0  0
    1.1200    0.4233    0.2104 C   0  0  0  0  0  0  0  0  0  0  0  0
    0.4883    1.7539   -0.2175 C   0  0  0  0  0  0  0  0  0  0  0  0
    2.5929    0.2927   -0.1913 C   0  0  0  0  0  0  0  0  0  0  0  0
   -0.9783    1.9461    0.1833 C   0  0  0  0  0  0  0  0  0  0  0  0
    3.1989   -1.0283    0.2693 C   0  0  0  0  0  0  0  0  0  0  0  0
   -1.8778    0.8661   -0.3442 C   0  0  0  0  0  0  0  0  0  0  0  0
   -2.6760    0.1164    0.4301 C   0  0  0  0  0  0  0  0  0  0  0  0
   -3.5722   -0.9649   -0.0963 C   0  0  0  0  0  0  0  0  0  0  0  0
   -2.8604   -2.3082   -0.1290 C   0  0  0  0  0  0  0  0  0  0  0  0
    0.5633   -0.4111   -0.2324 H   0  0  0  0  0  0  0  0  0  0  0  0
    1.0323    0.3223    1.2992 H   0  0  0  0  0  0  0  0  0  0  0  0
    1.0719    2.5791    0.2096 H   0  0  0  0  0  0  0  0  0  0  0  0
    0.5742    1.8488   -1.3080 H   0  0  0  0  0  0  0  0  0  0  0  0
    2.6926    0.3808   -1.2803 H   0  0  0  0  0  0  0  0  0  0  0  0
    3.1727    1.1230    0.2305 H   0  0  0  0  0  0  0  0  0  0  0  0
   -1.0440    2.0053    1.2766 H   0  0  0  0  0  0  0  0  0  0  0  0
   -1.3278    2.9098   -0.2058 H   0  0  0  0  0  0  0  0  0  0  0  0
    2.6715   -1.8815   -0.1694 H   0  0  0  0  0  0  0  0  0  0  0  0
    3.1498   -1.1189    1.3588 H   0  0  0  0  0  0  0  0  0  0  0  0
   -1.8804    0.7102   -1.4202 H   0  0  0  0  0  0  0  0  0  0  0  0
   -2.6732    0.2665    1.5068 H   0  0  0  0  0  0  0  0  0  0  0  0
   -3.9203   -0.7138   -1.1054 H   0  0  0  0  0  0  0  0  0  0  0  0
   -4.4653   -1.0285    0.5355 H   0  0  0  0  0  0  0  0  0  0  0  0
   -3.5369   -3.0848   -0.5001 H   0  0  0  0  0  0  0  0  0  0  0  0
   -2.5243   -2.6026    0.8710 H   0  0  0  0  0  0  0  0  0  0  0  0
   -1.9858   -2.2798   -0.7879 H   0  0  0  0  0  0  0  0  0  0  0  0
    4.6000   -1.0297   -1.0842 H   0  0  0  0  0  0  0  0  0  0  0  0
  1  6  1  0  0  0  0
  1 28  1  0  0  0  0
  2  3  1  0  0  0  0
  2  4  1  0  0  0  0
  2 11  1  0  0  0  0
  2 12  1  0  0  0  0
  3  5  1  0  0  0  0
  3 13  1  0  0  0  0
  3 14  1  0  0  0  0
  4  6  1  0  0  0  0
  4 15  1  0  0  0  0
  4 16  1  0  0  0  0
  5  7  1  0  0  0  0
  5 17  1  0  0  0  0
  5 18  1  0  0  0  0
  6 19  1  0  0  0  0
  6 20  1  0  0  0  0
  7  8  2  3  0  0  0
  7 21  1  0  0  0  0
  8  9  1  0  0  0  0
  8 22  1  0  0  0  0
  9 10  1  0  0  0  0
  9 23  1  0  0  0  0
  9 24  1  0  0  0  0
 10 25  1  0  0  0  0
 10 26  1  0  0  0  0
 10 27  1  0  0  0  0
M  END
> <PUBCHEM_COMPOUND_CID>
61950

> <PUBCHEM_CONFORMER_RMSD>
0.6

> <PUBCHEM_CONFORMER_DIVERSEORDER>
1
7
186
103
181
168
6
158
173
164
90
15
184
54
160
83
18
163
188
35
182
20
85
191
153
136
137
87
166
101
113
2
84
161
155
81
139
58
169
4
189
72
52
150
178
152
67
187
11
176
55
128
111
171
23
175
165
148
135
93
167
26
10
141
162
107
154
34
77
120
62
71
140
30
92
73
180
69
94
41
16
145
60
57
80
98
190
121
14
39
114
174
183
65
27
68
89
40
21
106
3
193
8
192
131
124
36
110
12
144
151
37
63
97
86
64
179
177
22
25
100
126
75
134
116
147
24
123
70
48
82
157
172
61
95
127
56
88
108
76
50
143
32
129
105
156
117
99
29
47
149
115
74
44
170
119
19
91
59
96
53
130
132
17
43
146
159
38
122
142
109
42
138
49
45
125
102
79
104
13
66
185
31
118
28
33
46
133
9
78
5
112
51

> <PUBCHEM_MMFF94_PARTIAL_CHARGES>
9
1 -0.68
21 0.15
22 0.15
28 0.4
5 0.14
6 0.28
7 -0.29
8 -0.29
9 0.14

> <PUBCHEM_EFFECTIVE_ROTOR_COUNT>
6

> <PUBCHEM_PHARMACOPHORE_FEATURES>
4
1 1 acceptor
1 1 donor
1 10 hydrophobe
5 2 3 4 5 7 hydrophobe

> <PUBCHEM_HEAVY_ATOM_COUNT>
10

> <PUBCHEM_ATOM_DEF_STEREO_COUNT>
0

> <PUBCHEM_ATOM_UDEF_STEREO_COUNT>
0

> <PUBCHEM_BOND_DEF_STEREO_COUNT>
0

> <PUBCHEM_BOND_UDEF_STEREO_COUNT>
1

> <PUBCHEM_ISOTOPIC_ATOM_COUNT>
0

> <PUBCHEM_COMPONENT_COUNT>
1

> <PUBCHEM_CACTVS_TAUTO_COUNT>
1

> <PUBCHEM_CONFORMER_ID>
0000F1FE00000001

> <PUBCHEM_MMFF94_ENERGY>
-0.0248

> <PUBCHEM_FEATURE_SELFOVERLAP>
20.297

> <PUBCHEM_SHAPE_FINGERPRINT>
10149128 111 10087631607133211178
11127187 94 18260542295358610253
12006461 19 18341894120904265851
12757275 245 18410576145736376318
14123260 362 10159691451866156906
14251710 61 18410295834521950466
14916288 52 18048883192913332587
177051 138 18411418406108414684
18342897 69 18410008793388696792
18915474 69 18334020518628333654
19107657 46 18411699846541102078
20211469 16 18411418423035212681
20281407 28 18411982463899920736
20281475 54 18338240469851617469
20621476 91 18194936713178589714
20645477 70 18046615983336666287
20653085 51 8790618034360111629
20724930 33 18411699889511640085
20871998 22 18338794649524141889
22485316 2 18410008853365439820
22959321 94 18408880711612185138
4416823 128 18410293652931550771
449060 23 18408323267722298088
59345605 10 18411412930373473466

> <PUBCHEM_SHAPE_MULTIPOLES>
199.93
7.38
2.26
0.67
4.59
0.2
-0.01
5.46
0.08
-1.01
0.07
-0.07
-0.03
-0.18

> <PUBCHEM_SHAPE_SELFOVERLAP>
355.378

> <PUBCHEM_SHAPE_VOLUME>
130.1

> <PUBCHEM_COORDINATE_TYPE>
2
5
10

$$$$
