61979
  -OEChem-11232109263D

 30 32  0     1  0  0  0  0  0999 V2000
   -0.1535    0.4344   -1.2309 S   0  0  0  0  0  0  0  0  0  0  0  0
    0.1705   -0.8280    1.3970 S   0  0  0  0  0  0  0  0  0  0  0  0
    2.4148   -0.4221   -1.1319 O   0  0  0  0  0  0  0  0  0  0  0  0
   -3.3557    0.0090   -0.2441 O   0  0  0  0  0  0  0  0  0  0  0  0
   -1.0419   -0.0396    0.3022 C   0  0  2  0  0  0  0  0  0  0  0  0
    1.5342    0.5508   -0.5322 C   0  0  2  0  0  0  0  0  0  0  0  0
    1.5428    0.2910    0.9761 C   0  0  2  0  0  0  0  0  0  0  0  0
   -2.2878   -0.9057    0.0810 C   0  0  2  0  0  0  0  0  0  0  0  0
   -1.6664    1.1945    0.9391 C   0  0  0  0  0  0  0  0  0  0  0  0
    2.8770   -0.3912    1.1899 C   0  0  0  0  0  0  0  0  0  0  0  0
    3.0857   -1.1562   -0.1000 C   0  0  0  0  0  0  0  0  0  0  0  0
   -2.9895    1.3222    0.2034 C   0  0  0  0  0  0  0  0  0  0  0  0
    2.0934    1.9353   -0.8701 C   0  0  0  0  0  0  0  0  0  0  0  0
   -2.2235   -1.9945   -0.9794 C   0  0  0  0  0  0  0  0  0  0  0  0
    1.4389    1.1980    1.5802 H   0  0  0  0  0  0  0  0  0  0  0  0
   -2.5891   -1.3752    1.0279 H   0  0  0  0  0  0  0  0  0  0  0  0
   -1.0693    2.1111    0.8862 H   0  0  0  0  0  0  0  0  0  0  0  0
   -1.8862    1.0149    2.0005 H   0  0  0  0  0  0  0  0  0  0  0  0
    2.9434   -1.0246    2.0797 H   0  0  0  0  0  0  0  0  0  0  0  0
    3.6589    0.3734    1.2788 H   0  0  0  0  0  0  0  0  0  0  0  0
    4.1438   -1.2622   -0.3556 H   0  0  0  0  0  0  0  0  0  0  0  0
    2.6412   -2.1558   -0.0530 H   0  0  0  0  0  0  0  0  0  0  0  0
   -3.7813    1.7237    0.8425 H   0  0  0  0  0  0  0  0  0  0  0  0
   -2.9001    1.9650   -0.6784 H   0  0  0  0  0  0  0  0  0  0  0  0
    1.4934    2.7407   -0.4325 H   0  0  0  0  0  0  0  0  0  0  0  0
    3.1198    2.0421   -0.4997 H   0  0  0  0  0  0  0  0  0  0  0  0
    2.1519    2.0869   -1.9547 H   0  0  0  0  0  0  0  0  0  0  0  0
   -1.3862   -2.6770   -0.8080 H   0  0  0  0  0  0  0  0  0  0  0  0
   -3.1501   -2.5796   -0.9655 H   0  0  0  0  0  0  0  0  0  0  0  0
   -2.1513   -1.5781   -1.9893 H   0  0  0  0  0  0  0  0  0  0  0  0
  1  5  1  0  0  0  0
  1  6  1  0  0  0  0
  2  5  1  0  0  0  0
  2  7  1  0  0  0  0
  3  6  1  0  0  0  0
  3 11  1  0  0  0  0
  4  8  1  0  0  0  0
  4 12  1  0  0  0  0
  5  8  1  0  0  0  0
  5  9  1  0  0  0  0
  6  7  1  0  0  0  0
  6 13  1  0  0  0  0
  7 10  1  0  0  0  0
  7 15  1  0  0  0  0
  8 14  1  0  0  0  0
  8 16  1  0  0  0  0
  9 12  1  0  0  0  0
  9 17  1  0  0  0  0
  9 18  1  0  0  0  0
 10 11  1  0  0  0  0
 10 19  1  0  0  0  0
 10 20  1  0  0  0  0
 11 21  1  0  0  0  0
 11 22  1  0  0  0  0
 12 23  1  0  0  0  0
 12 24  1  0  0  0  0
 13 25  1  0  0  0  0
 13 26  1  0  0  0  0
 13 27  1  0  0  0  0
 14 28  1  0  0  0  0
 14 29  1  0  0  0  0
 14 30  1  0  0  0  0
M  END
> <PUBCHEM_COMPOUND_CID>
61979

> <PUBCHEM_CONFORMER_RMSD>
0.6

> <PUBCHEM_CONFORMER_DIVERSEORDER>
1
9
25
2
23
12
18
16
6
22
13
17
10
14
7
8
15
5
19
11
4
20
3
21
24

> <PUBCHEM_MMFF94_PARTIAL_CHARGES>
10
1 -0.46
11 0.28
12 0.28
2 -0.46
3 -0.56
4 -0.56
5 0.46
6 0.51
7 0.23
8 0.28

> <PUBCHEM_EFFECTIVE_ROTOR_COUNT>
1.8

> <PUBCHEM_PHARMACOPHORE_FEATURES>
5
1 3 acceptor
1 4 acceptor
5 1 2 5 6 7 rings
5 3 6 7 10 11 rings
5 4 5 8 9 12 rings

> <PUBCHEM_HEAVY_ATOM_COUNT>
14

> <PUBCHEM_ATOM_DEF_STEREO_COUNT>
0

> <PUBCHEM_ATOM_UDEF_STEREO_COUNT>
4

> <PUBCHEM_BOND_DEF_STEREO_COUNT>
0

> <PUBCHEM_BOND_UDEF_STEREO_COUNT>
0

> <PUBCHEM_ISOTOPIC_ATOM_COUNT>
0

> <PUBCHEM_COMPONENT_COUNT>
1

> <PUBCHEM_CACTVS_TAUTO_COUNT>
1

> <PUBCHEM_CONFORMER_ID>
0000F21B00000001

> <PUBCHEM_MMFF94_ENERGY>
39.3061

> <PUBCHEM_FEATURE_SELFOVERLAP>
25.645

> <PUBCHEM_SHAPE_FINGERPRINT>
10353120 184 16733551498748534610
10922523 26 18341615862926644727
11471102 22 15123791769033944978
11769659 78 18343292674046578750
124424 183 16845003507804062850
12491281 212 18336847341073865673
12500047 106 18131064883739234358
12716758 59 18131351886718669691
12932764 1 18059021699390320649
13581323 91 18130785655246677811
14115302 16 18273214188137713067
14993402 34 18041280976191781847
15207287 21 16630234819202987703
15775835 57 17821733827178199948
15852999 172 17488459685378549591
16945 1 18187932716128604177
18186145 218 17749105616949737215
18511873 20 18337112250340525865
20201158 50 16487254344080116151
20279233 1 17132111346855382803
20361792 2 17748819700887223846
20645476 183 18335135359110660699
20711985 344 15768122032519348232
21501502 16 18337673125983011660
23402539 116 17846204511386311917
23419403 2 17184968285159378033
23552423 10 18336545005546428523
23557571 272 17917425483805749529
23559900 14 17774720862592045986
23598291 2 18334299764147694117
2748010 2 16879366690683074018
3248919 1 18272368680796792245
369184 2 16128654132992421603
5084963 1 18334008389155301920
528886 8 17022908934263655832
549884 4 18040723558224926516
57812782 119 17346312652943722233
63268167 104 17676207982879737296
6992083 37 18266466412068675793
7364860 26 18338519745979269316
74978 22 18113623403775829043
77492 1 18260265248361176283
81228 2 15481291317300074498
9939556 21 18410294722135671525

> <PUBCHEM_SHAPE_MULTIPOLES>
284.07
5.12
1.69
1.37
0.46
0.14
-0.04
-0.38
0.18
0.2
0.32
-0.25
-0.13
-0.84

> <PUBCHEM_SHAPE_SELFOVERLAP>
570.184

> <PUBCHEM_SHAPE_VOLUME>
170.1

> <PUBCHEM_COORDINATE_TYPE>
2
5
10

$$$$
