61982
  -OEChem-11232108483D

 30 30  0     1  0  0  0  0  0999 V2000
    2.7845    1.6452   -0.2620 S   0  0  0  0  0  0  0  0  0  0  0  0
    0.1071   -2.0768    0.1624 O   0  0  0  0  0  0  0  0  0  0  0  0
    0.4598    0.2181   -0.5319 C   0  0  1  0  0  0  0  0  0  0  0  0
   -0.2830    1.4321    0.0325 C   0  0  0  0  0  0  0  0  0  0  0  0
   -2.5291    0.2470   -0.2354 C   0  0  1  0  0  0  0  0  0  0  0  0
   -1.7142    1.5222   -0.4985 C   0  0  0  0  0  0  0  0  0  0  0  0
    1.8504    0.1020    0.0842 C   0  0  0  0  0  0  0  0  0  0  0  0
   -1.8051   -0.9875   -0.7770 C   0  0  0  0  0  0  0  0  0  0  0  0
   -0.3679   -1.0409   -0.3007 C   0  0  0  0  0  0  0  0  0  0  0  0
   -2.8694    0.0832    1.2491 C   0  0  0  0  0  0  0  0  0  0  0  0
    2.6151   -1.0777   -0.5280 C   0  0  0  0  0  0  0  0  0  0  0  0
    1.7518   -0.0667    1.6052 C   0  0  0  0  0  0  0  0  0  0  0  0
    0.5415    0.3238   -1.6234 H   0  0  0  0  0  0  0  0  0  0  0  0
    0.2058    2.3739   -0.2358 H   0  0  0  0  0  0  0  0  0  0  0  0
   -0.3449    1.4070    1.1243 H   0  0  0  0  0  0  0  0  0  0  0  0
   -3.4822    0.3420   -0.7719 H   0  0  0  0  0  0  0  0  0  0  0  0
   -2.2176    2.3885   -0.0527 H   0  0  0  0  0  0  0  0  0  0  0  0
   -1.6800    1.7050   -1.5804 H   0  0  0  0  0  0  0  0  0  0  0  0
   -1.7864   -0.9691   -1.8729 H   0  0  0  0  0  0  0  0  0  0  0  0
   -2.3199   -1.9050   -0.4711 H   0  0  0  0  0  0  0  0  0  0  0  0
   -1.9785   -0.0771    1.8641 H   0  0  0  0  0  0  0  0  0  0  0  0
   -3.3876    0.9705    1.6277 H   0  0  0  0  0  0  0  0  0  0  0  0
   -3.5324   -0.7762    1.3968 H   0  0  0  0  0  0  0  0  0  0  0  0
    3.6874   -1.0099   -0.3013 H   0  0  0  0  0  0  0  0  0  0  0  0
    2.3144   -2.0540   -0.1413 H   0  0  0  0  0  0  0  0  0  0  0  0
    2.5177   -1.1016   -1.6198 H   0  0  0  0  0  0  0  0  0  0  0  0
    1.3932    0.8311    2.1198 H   0  0  0  0  0  0  0  0  0  0  0  0
    2.7447   -0.2755    2.0259 H   0  0  0  0  0  0  0  0  0  0  0  0
    1.1161   -0.8969    1.9219 H   0  0  0  0  0  0  0  0  0  0  0  0
    2.7417    1.5586   -1.5999 H   0  0  0  0  0  0  0  0  0  0  0  0
  1  7  1  0  0  0  0
  1 30  1  0  0  0  0
  2  9  2  0  0  0  0
  3  4  1  0  0  0  0
  3  7  1  0  0  0  0
  3  9  1  0  0  0  0
  3 13  1  0  0  0  0
  4  6  1  0  0  0  0
  4 14  1  0  0  0  0
  4 15  1  0  0  0  0
  5  6  1  0  0  0  0
  5  8  1  0  0  0  0
  5 10  1  0  0  0  0
  5 16  1  0  0  0  0
  6 17  1  0  0  0  0
  6 18  1  0  0  0  0
  7 11  1  0  0  0  0
  7 12  1  0  0  0  0
  8  9  1  0  0  0  0
  8 19  1  0  0  0  0
  8 20  1  0  0  0  0
 10 21  1  0  0  0  0
 10 22  1  0  0  0  0
 10 23  1  0  0  0  0
 11 24  1  0  0  0  0
 11 25  1  0  0  0  0
 11 26  1  0  0  0  0
 12 27  1  0  0  0  0
 12 28  1  0  0  0  0
 12 29  1  0  0  0  0
M  END
> <PUBCHEM_COMPOUND_CID>
61982

> <PUBCHEM_CONFORMER_RMSD>
0.6

> <PUBCHEM_CONFORMER_DIVERSEORDER>
5
8
3
2
7
6
1
11
9
10
12
4

> <PUBCHEM_MMFF94_PARTIAL_CHARGES>
7
1 -0.41
2 -0.57
3 0.06
30 0.18
7 0.23
8 0.06
9 0.45

> <PUBCHEM_EFFECTIVE_ROTOR_COUNT>
2

> <PUBCHEM_PHARMACOPHORE_FEATURES>
3
1 2 acceptor
3 7 11 12 hydrophobe
6 3 4 5 6 8 9 rings

> <PUBCHEM_HEAVY_ATOM_COUNT>
12

> <PUBCHEM_ATOM_DEF_STEREO_COUNT>
0

> <PUBCHEM_ATOM_UDEF_STEREO_COUNT>
2

> <PUBCHEM_BOND_DEF_STEREO_COUNT>
0

> <PUBCHEM_BOND_UDEF_STEREO_COUNT>
0

> <PUBCHEM_ISOTOPIC_ATOM_COUNT>
0

> <PUBCHEM_COMPONENT_COUNT>
1

> <PUBCHEM_CACTVS_TAUTO_COUNT>
3

> <PUBCHEM_CONFORMER_ID>
0000F21E00000005

> <PUBCHEM_MMFF94_ENERGY>
33.0188

> <PUBCHEM_FEATURE_SELFOVERLAP>
15.223

> <PUBCHEM_SHAPE_FINGERPRINT>
10857977 72 18333456439056159345
12423570 1 16958192582028001492
12491281 212 17346052137555076891
12524768 44 18337668723620343452
12932764 1 17458341905667279301
13380535 21 18268163117830039718
14325111 11 18411138034664220029
15775835 57 18273218607617018585
16945 1 18338513023896209983
17844478 74 18260563211701667865
20511035 2 17765138476404684013
21040471 1 18340758286832896270
21501502 16 18201155550575895094
22802520 49 18199487578614999630
23235685 24 18343021120328075949
23552423 10 18409722941861559974
241688 4 16824733765911388857
2748010 2 18336540530164346988
29004967 10 15864058884492725260
3286 77 17060047142751997143
369184 2 18410003347417657621
5084963 1 18202276979073460358
528862 383 18041844033503775741
528886 8 18340770441701087676
63268167 104 18343863337829556193
7364860 26 18343018900536748836

> <PUBCHEM_SHAPE_MULTIPOLES>
244.93
4.3
1.79
1.1
0.05
0.05
-0.43
-0.73
-0.34
0.38
0.25
-0.05
0.05
-0.06

> <PUBCHEM_SHAPE_SELFOVERLAP>
477.263

> <PUBCHEM_SHAPE_VOLUME>
151.3

> <PUBCHEM_COORDINATE_TYPE>
2
5
10

$$$$
