61980
  -OEChem-11232108443D

 29 29  0     0  0  0  0  0  0999 V2000
    2.3626   -0.1327   -0.1429 O   0  0  0  0  0  0  0  0  0  0  0  0
    0.9131   -1.6236    0.8447 O   0  0  0  0  0  0  0  0  0  0  0  0
   -1.6498   -1.1064   -0.0431 N   0  0  0  0  0  0  0  0  0  0  0  0
   -1.2023    0.2333   -0.0083 C   0  0  0  0  0  0  0  0  0  0  0  0
    0.1477    0.5330    0.1752 C   0  0  0  0  0  0  0  0  0  0  0  0
   -3.0217   -1.4600   -0.2289 C   0  0  0  0  0  0  0  0  0  0  0  0
   -2.1308    1.2631   -0.1609 C   0  0  0  0  0  0  0  0  0  0  0  0
    0.5689    1.8624    0.2060 C   0  0  0  0  0  0  0  0  0  0  0  0
    1.1426   -0.5196    0.3376 C   0  0  0  0  0  0  0  0  0  0  0  0
   -1.7095    2.5924   -0.1303 C   0  0  0  0  0  0  0  0  0  0  0  0
   -0.3597    2.8920    0.0532 C   0  0  0  0  0  0  0  0  0  0  0  0
   -3.1751   -2.9688   -0.2412 C   0  0  0  0  0  0  0  0  0  0  0  0
    3.4267   -1.0851   -0.0407 C   0  0  0  0  0  0  0  0  0  0  0  0
    4.6875   -0.4799   -0.6204 C   0  0  0  0  0  0  0  0  0  0  0  0
   -0.9591   -1.8406    0.0586 H   0  0  0  0  0  0  0  0  0  0  0  0
   -3.6401   -1.0562    0.5812 H   0  0  0  0  0  0  0  0  0  0  0  0
   -3.3988   -1.0700   -1.1815 H   0  0  0  0  0  0  0  0  0  0  0  0
   -3.1911    1.0795   -0.3050 H   0  0  0  0  0  0  0  0  0  0  0  0
    1.6104    2.1315    0.3616 H   0  0  0  0  0  0  0  0  0  0  0  0
   -2.4321    3.3947   -0.2480 H   0  0  0  0  0  0  0  0  0  0  0  0
   -0.0326    3.9273    0.0806 H   0  0  0  0  0  0  0  0  0  0  0  0
   -2.5905   -3.4176   -1.0515 H   0  0  0  0  0  0  0  0  0  0  0  0
   -2.8310   -3.4073    0.7016 H   0  0  0  0  0  0  0  0  0  0  0  0
   -4.2244   -3.2455   -0.3836 H   0  0  0  0  0  0  0  0  0  0  0  0
    3.5869   -1.3396    1.0127 H   0  0  0  0  0  0  0  0  0  0  0  0
    3.1591   -1.9902   -0.5970 H   0  0  0  0  0  0  0  0  0  0  0  0
    5.5231   -1.1825   -0.5581 H   0  0  0  0  0  0  0  0  0  0  0  0
    4.5351   -0.2032   -1.6688 H   0  0  0  0  0  0  0  0  0  0  0  0
    4.9556    0.4373   -0.0855 H   0  0  0  0  0  0  0  0  0  0  0  0
  1  9  1  0  0  0  0
  1 13  1  0  0  0  0
  2  9  2  0  0  0  0
  3  4  1  0  0  0  0
  3  6  1  0  0  0  0
  3 15  1  0  0  0  0
  4  5  1  0  0  0  0
  4  7  2  0  0  0  0
  5  8  2  0  0  0  0
  5  9  1  0  0  0  0
  6 12  1  0  0  0  0
  6 16  1  0  0  0  0
  6 17  1  0  0  0  0
  7 10  1  0  0  0  0
  7 18  1  0  0  0  0
  8 11  1  0  0  0  0
  8 19  1  0  0  0  0
 10 11  2  0  0  0  0
 10 20  1  0  0  0  0
 11 21  1  0  0  0  0
 12 22  1  0  0  0  0
 12 23  1  0  0  0  0
 12 24  1  0  0  0  0
 13 14  1  0  0  0  0
 13 25  1  0  0  0  0
 13 26  1  0  0  0  0
 14 27  1  0  0  0  0
 14 28  1  0  0  0  0
 14 29  1  0  0  0  0
M  END
> <PUBCHEM_COMPOUND_CID>
61980

> <PUBCHEM_CONFORMER_RMSD>
0.6

> <PUBCHEM_CONFORMER_DIVERSEORDER>
1
31
21
35
25
24
39
14
36
22
9
42
29
5
37
30
38
10
26
19
15
23
18
8
41
17
20
12
32
33
16
27
13
3
6
2
43
40
34
28
7
4
11

> <PUBCHEM_MMFF94_PARTIAL_CHARGES>
17
1 -0.43
10 -0.15
11 -0.15
13 0.28
15 0.4
18 0.15
19 0.15
2 -0.57
20 0.15
21 0.15
3 -0.87
4 0.1
5 0.09
6 0.37
7 -0.15
8 -0.15
9 0.63

> <PUBCHEM_EFFECTIVE_ROTOR_COUNT>
5

> <PUBCHEM_PHARMACOPHORE_FEATURES>
4
1 2 acceptor
1 3 cation
1 3 donor
6 4 5 7 8 10 11 rings

> <PUBCHEM_HEAVY_ATOM_COUNT>
14

> <PUBCHEM_ATOM_DEF_STEREO_COUNT>
0

> <PUBCHEM_ATOM_UDEF_STEREO_COUNT>
0

> <PUBCHEM_BOND_DEF_STEREO_COUNT>
0

> <PUBCHEM_BOND_UDEF_STEREO_COUNT>
0

> <PUBCHEM_ISOTOPIC_ATOM_COUNT>
0

> <PUBCHEM_COMPONENT_COUNT>
1

> <PUBCHEM_CACTVS_TAUTO_COUNT>
2

> <PUBCHEM_CONFORMER_ID>
0000F21C00000001

> <PUBCHEM_MMFF94_ENERGY>
41.5092

> <PUBCHEM_FEATURE_SELFOVERLAP>
20.297

> <PUBCHEM_SHAPE_FINGERPRINT>
11680986 33 18269822268044829345
12173636 292 17906447723702478796
12553582 1 18337382833644742475
12841375 25 18339080518236539567
14790565 3 18051982420002982369
15279307 12 17972881350049847538
15442244 35 18268715086026988227
15490181 8 17112689294500690969
15669948 3 18264483988635746098
16945 1 18265883666626993449
193761 8 18338512053629766033
20300324 65 18409739443732286828
20645476 183 17972883561910603605
20645477 70 17761758960446584599
20871998 184 18201999893627264047
20871998 22 18196368336988254153
20871999 31 18337100186209849965
21426921 1 18339646646707989340
221490 88 17759243290268140379
22213442 358 18340768234014115998
23402539 116 18407757024262443782
23557571 272 18202010884891562700
23559900 14 18127124179291221282
2748010 2 18267566065583470217
3071541 250 18193842767305877327
54173680 148 18411417267630838379
7364860 26 17836645597458849643
81228 2 18340473479278107649
9709674 26 18056199064496386342

> <PUBCHEM_SHAPE_MULTIPOLES>
271.39
5.92
3.32
0.69
6.3
0.77
0.01
-4.62
-1.34
-3.27
-0.07
0.14
-0.07
-0.09

> <PUBCHEM_SHAPE_SELFOVERLAP>
550.619

> <PUBCHEM_SHAPE_VOLUME>
159.1

> <PUBCHEM_COORDINATE_TYPE>
2
5
10

$$$$
