61985
  -OEChem-11232109103D

 36 36  0     0  0  0  0  0  0999 V2000
   -1.7754   -0.2622   -0.0040 O   0  0  0  0  0  0  0  0  0  0  0  0
   -0.4697   -2.1466   -0.2579 O   0  0  0  0  0  0  0  0  0  0  0  0
   -4.2354    0.7908   -0.8838 O   0  0  0  0  0  0  0  0  0  0  0  0
    4.4303   -0.2937   -0.0159 C   0  0  0  0  0  0  0  0  0  0  0  0
    3.0669    0.3903    0.1045 C   0  0  0  0  0  0  0  0  0  0  0  0
    5.5727    0.7114    0.1413 C   0  0  0  0  0  0  0  0  0  0  0  0
    1.9243   -0.6121   -0.0863 C   0  0  0  0  0  0  0  0  0  0  0  0
    6.9342    0.0342   -0.0121 C   0  0  0  0  0  0  0  0  0  0  0  0
    0.5482    0.0476    0.0008 C   0  0  0  0  0  0  0  0  0  0  0  0
    8.0715    1.0357    0.1100 C   0  0  0  0  0  0  0  0  0  0  0  0
   -0.5935   -0.9379   -0.1153 C   0  0  0  0  0  0  0  0  0  0  0  0
   -2.9555   -1.0701   -0.0634 C   0  0  0  0  0  0  0  0  0  0  0  0
   -4.1261   -0.1476    0.0760 C   0  0  0  0  0  0  0  0  0  0  0  0
   -5.1197   -0.0662    0.9961 C   0  0  0  0  0  0  0  0  0  0  0  0
   -5.9263    1.0193    0.5791 C   0  0  0  0  0  0  0  0  0  0  0  0
   -5.3465    1.5069   -0.5689 C   0  0  0  0  0  0  0  0  0  0  0  0
    4.5194   -1.0753    0.7483 H   0  0  0  0  0  0  0  0  0  0  0  0
    4.5078   -0.7861   -0.9929 H   0  0  0  0  0  0  0  0  0  0  0  0
    2.9780    0.8666    1.0883 H   0  0  0  0  0  0  0  0  0  0  0  0
    2.9850    1.1836   -0.6485 H   0  0  0  0  0  0  0  0  0  0  0  0
    5.5083    1.1916    1.1253 H   0  0  0  0  0  0  0  0  0  0  0  0
    5.4706    1.5027   -0.6115 H   0  0  0  0  0  0  0  0  0  0  0  0
    2.0267   -1.1085   -1.0596 H   0  0  0  0  0  0  0  0  0  0  0  0
    2.0012   -1.3996    0.6740 H   0  0  0  0  0  0  0  0  0  0  0  0
    6.9966   -0.4610   -0.9881 H   0  0  0  0  0  0  0  0  0  0  0  0
    7.0524   -0.7414    0.7535 H   0  0  0  0  0  0  0  0  0  0  0  0
    0.4516    0.5606    0.9646 H   0  0  0  0  0  0  0  0  0  0  0  0
    0.4450    0.7846   -0.8037 H   0  0  0  0  0  0  0  0  0  0  0  0
    8.0572    1.5281    1.0875 H   0  0  0  0  0  0  0  0  0  0  0  0
    8.0007    1.8063   -0.6644 H   0  0  0  0  0  0  0  0  0  0  0  0
    9.0356    0.5298   -0.0015 H   0  0  0  0  0  0  0  0  0  0  0  0
   -2.9463   -1.8008    0.7531 H   0  0  0  0  0  0  0  0  0  0  0  0
   -3.0051   -1.5896   -1.0269 H   0  0  0  0  0  0  0  0  0  0  0  0
   -5.2622   -0.6969    1.8618 H   0  0  0  0  0  0  0  0  0  0  0  0
   -6.8186    1.3989    1.0555 H   0  0  0  0  0  0  0  0  0  0  0  0
   -5.5887    2.3147   -1.2441 H   0  0  0  0  0  0  0  0  0  0  0  0
  1 11  1  0  0  0  0
  1 12  1  0  0  0  0
  2 11  2  0  0  0  0
  3 13  1  0  0  0  0
  3 16  1  0  0  0  0
  4  5  1  0  0  0  0
  4  6  1  0  0  0  0
  4 17  1  0  0  0  0
  4 18  1  0  0  0  0
  5  7  1  0  0  0  0
  5 19  1  0  0  0  0
  5 20  1  0  0  0  0
  6  8  1  0  0  0  0
  6 21  1  0  0  0  0
  6 22  1  0  0  0  0
  7  9  1  0  0  0  0
  7 23  1  0  0  0  0
  7 24  1  0  0  0  0
  8 10  1  0  0  0  0
  8 25  1  0  0  0  0
  8 26  1  0  0  0  0
  9 11  1  0  0  0  0
  9 27  1  0  0  0  0
  9 28  1  0  0  0  0
 10 29  1  0  0  0  0
 10 30  1  0  0  0  0
 10 31  1  0  0  0  0
 12 13  1  0  0  0  0
 12 32  1  0  0  0  0
 12 33  1  0  0  0  0
 13 14  2  0  0  0  0
 14 15  1  0  0  0  0
 14 34  1  0  0  0  0
 15 16  2  0  0  0  0
 15 35  1  0  0  0  0
 16 36  1  0  0  0  0
M  END
> <PUBCHEM_COMPOUND_CID>
61985

> <PUBCHEM_CONFORMER_RMSD>
1

> <PUBCHEM_CONFORMER_DIVERSEORDER>
1
207
172
13
81
7
111
71
144
241
183
3
79
6
49
16
53
165
30
146
22
185
248
23
155
12
152
60
163
2
102
250
129
43
87
252
141
42
67
17
24
21
59
181
173
209
114
201
90
19
175
5
113
63
58
136
112
37
216
261
203
97
222
56
184
258
228
34
220
100
120
57
38
217
242
255
15
148
126
46
47
8
243
179
238
249
118
50
69
204
124
145
233
41
149
153
214
198
64
213
156
11
230
35
131
223
40
205
218
39
125
88
130
32
202
48
263
4
36
65
206
44
235
176
27
231
236
164
9
192
208
83
119
259
244
160
253
132
86
89
150
211
108
221
72
55
180
107
116
77
26
105
224
92
20
96
158
18
260
62
103
28
194
10
229
128
197
138
226
167
147
189
170
135
75
31
80
117
245
169
159
25
33
190
186
61
74
121
162
196
123
14
257
91
134
110
122
200
52
187
82
215
84
143
188
85
76
161
104
157
78
51
98
171
66
70
99
240
182
45
54
142
193
225
29
174
166
93
178
168
140
137
212
177
106
68
232
133
73
151
239
237
199
262
227
115
254
154
94
101
127
246
247
109
191
95
219
210
234
251
139
256
195

> <PUBCHEM_MMFF94_PARTIAL_CHARGES>
13
1 -0.43
11 0.66
12 0.46
13 -0.04
14 -0.15
15 -0.15
16 -0.01
2 -0.57
3 -0.28
34 0.15
35 0.15
36 0.15
9 0.06

> <PUBCHEM_EFFECTIVE_ROTOR_COUNT>
9

> <PUBCHEM_PHARMACOPHORE_FEATURES>
6
1 10 hydrophobe
1 2 acceptor
1 3 acceptor
3 4 6 8 hydrophobe
3 5 7 9 hydrophobe
5 3 13 14 15 16 rings

> <PUBCHEM_HEAVY_ATOM_COUNT>
16

> <PUBCHEM_ATOM_DEF_STEREO_COUNT>
0

> <PUBCHEM_ATOM_UDEF_STEREO_COUNT>
0

> <PUBCHEM_BOND_DEF_STEREO_COUNT>
0

> <PUBCHEM_BOND_UDEF_STEREO_COUNT>
0

> <PUBCHEM_ISOTOPIC_ATOM_COUNT>
0

> <PUBCHEM_COMPONENT_COUNT>
1

> <PUBCHEM_CACTVS_TAUTO_COUNT>
1

> <PUBCHEM_CONFORMER_ID>
0000F22100000001

> <PUBCHEM_MMFF94_ENERGY>
3.7802

> <PUBCHEM_FEATURE_SELFOVERLAP>
30.46

> <PUBCHEM_SHAPE_FINGERPRINT>
10066227 112 18341891931215107232
106641 1 18114470020141504729
11089746 13 16988840596990128544
11315181 36 9439402441335759143
117890 112 18342738529271538164
12091667 2 18335701663064112619
13288520 33 9511458923209064523
13533116 47 17417813882147374518
13668630 136 11312057656114864352
13740256 8 9079107865280488463
14123256 10 11743840261329473812
1420 363 7853573521969633288
14251718 22 10807938167585626406
14251752 14 18412542085854834088
14251764 18 18260545640800718354
14251764 46 18410293622587100907
14729087 3 18343016701402872952
14849402 71 16009611190649423020
14933364 13 18260831505771939148
15048467 5 18411981364889166904
15183329 4 16487257651537178414
15501527 16 18410292518764681583
15716309 27 12324242767271463200
17093844 174 18412260679181037810
17834072 8 17560799939656410216
17834076 25 18060138743122104066
19489759 90 13110967521869293635
20281389 69 18334574650966553112
20621476 66 18411141333241268732
20621476 8 18411420601596299886
20645477 56 18409443691498450143
21054139 6 12247674972331641164
21130983 4 18259988193512656532
21150785 3 16702297966517610789
21304253 13 18408322211804785804
22224240 67 15357697513540902192
22288116 15 17203034283943739517
23035841 295 10809344438335770944
23402539 116 18131627906717558518
23559900 14 17561077051447540858
246663 6 12973882594847681456
28498 318 18202568346663023110
293599 30 18412261735658609242
300161 21 18201997742513539990
4463277 17 18335138709374873700
57583515 80 15267345128153263398
59755656 520 17313100878178406266

> <PUBCHEM_SHAPE_MULTIPOLES>
311.66
20.96
1.35
0.75
26.08
0.24
-0.04
-9.97
-1.69
-0.93
0.14
-0.69
-0.08
0.36

> <PUBCHEM_SHAPE_SELFOVERLAP>
611.03

> <PUBCHEM_SHAPE_VOLUME>
188.6

> <PUBCHEM_COORDINATE_TYPE>
2
5
10

$$$$
