61990
  -OEChem-11232109173D

 36 36  0     1  0  0  0  0  0999 V2000
   -4.0984    0.2735   -0.4183 O   0  0  0  0  0  0  0  0  0  0  0  0
   -3.1160    2.2248    0.2744 O   0  0  0  0  0  0  0  0  0  0  0  0
   -1.8708    0.1325    0.3266 C   0  0  1  0  0  0  0  0  0  0  0  0
   -2.2040   -1.0820   -0.5190 C   0  0  0  0  0  0  0  0  0  0  0  0
   -0.5556    0.7786   -0.0667 C   0  0  0  0  0  0  0  0  0  0  0  0
   -3.7181   -1.1088   -0.4978 C   0  0  1  0  0  0  0  0  0  0  0  0
    0.6315   -0.1325    0.2450 C   0  0  0  0  0  0  0  0  0  0  0  0
    1.9534    0.5086   -0.1841 C   0  0  0  0  0  0  0  0  0  0  0  0
   -3.0590    1.0228    0.0657 C   0  0  0  0  0  0  0  0  0  0  0  0
    3.1426   -0.3892    0.1641 C   0  0  0  0  0  0  0  0  0  0  0  0
   -4.3015   -1.8607    0.6899 C   0  0  0  0  0  0  0  0  0  0  0  0
    4.4982    0.2352   -0.1789 C   0  0  0  0  0  0  0  0  0  0  0  0
    5.6888   -0.6301    0.2361 C   0  0  0  0  0  0  0  0  0  0  0  0
    7.0089    0.0273   -0.1370 C   0  0  0  0  0  0  0  0  0  0  0  0
   -1.8797   -0.1232    1.3930 H   0  0  0  0  0  0  0  0  0  0  0  0
   -1.8641   -0.9334   -1.5521 H   0  0  0  0  0  0  0  0  0  0  0  0
   -1.7517   -2.0074   -0.1494 H   0  0  0  0  0  0  0  0  0  0  0  0
   -0.5607    1.0396   -1.1329 H   0  0  0  0  0  0  0  0  0  0  0  0
   -0.4354    1.7248    0.4763 H   0  0  0  0  0  0  0  0  0  0  0  0
   -4.1115   -1.5284   -1.4297 H   0  0  0  0  0  0  0  0  0  0  0  0
    0.6563   -0.3455    1.3207 H   0  0  0  0  0  0  0  0  0  0  0  0
    0.5211   -1.0924   -0.2723 H   0  0  0  0  0  0  0  0  0  0  0  0
    1.9416    0.6996   -1.2639 H   0  0  0  0  0  0  0  0  0  0  0  0
    2.0696    1.4780    0.3153 H   0  0  0  0  0  0  0  0  0  0  0  0
    3.0433   -1.3461   -0.3633 H   0  0  0  0  0  0  0  0  0  0  0  0
    3.1192   -0.6159    1.2374 H   0  0  0  0  0  0  0  0  0  0  0  0
   -5.3951   -1.7991    0.6739 H   0  0  0  0  0  0  0  0  0  0  0  0
   -4.0115   -2.9153    0.6698 H   0  0  0  0  0  0  0  0  0  0  0  0
   -3.9804   -1.4265    1.6425 H   0  0  0  0  0  0  0  0  0  0  0  0
    4.5768    1.2126    0.3136 H   0  0  0  0  0  0  0  0  0  0  0  0
    4.5416    0.4215   -1.2592 H   0  0  0  0  0  0  0  0  0  0  0  0
    5.6224   -1.6098   -0.2509 H   0  0  0  0  0  0  0  0  0  0  0  0
    5.6633   -0.8024    1.3182 H   0  0  0  0  0  0  0  0  0  0  0  0
    7.0773    0.1841   -1.2183 H   0  0  0  0  0  0  0  0  0  0  0  0
    7.1183    0.9970    0.3590 H   0  0  0  0  0  0  0  0  0  0  0  0
    7.8472   -0.6068    0.1680 H   0  0  0  0  0  0  0  0  0  0  0  0
  1  6  1  0  0  0  0
  1  9  1  0  0  0  0
  2  9  2  0  0  0  0
  3  4  1  0  0  0  0
  3  5  1  0  0  0  0
  3  9  1  0  0  0  0
  3 15  1  0  0  0  0
  4  6  1  0  0  0  0
  4 16  1  0  0  0  0
  4 17  1  0  0  0  0
  5  7  1  0  0  0  0
  5 18  1  0  0  0  0
  5 19  1  0  0  0  0
  6 11  1  0  0  0  0
  6 20  1  0  0  0  0
  7  8  1  0  0  0  0
  7 21  1  0  0  0  0
  7 22  1  0  0  0  0
  8 10  1  0  0  0  0
  8 23  1  0  0  0  0
  8 24  1  0  0  0  0
 10 12  1  0  0  0  0
 10 25  1  0  0  0  0
 10 26  1  0  0  0  0
 11 27  1  0  0  0  0
 11 28  1  0  0  0  0
 11 29  1  0  0  0  0
 12 13  1  0  0  0  0
 12 30  1  0  0  0  0
 12 31  1  0  0  0  0
 13 14  1  0  0  0  0
 13 32  1  0  0  0  0
 13 33  1  0  0  0  0
 14 34  1  0  0  0  0
 14 35  1  0  0  0  0
 14 36  1  0  0  0  0
M  END
> <PUBCHEM_COMPOUND_CID>
61990

> <PUBCHEM_CONFORMER_RMSD>
0.8

> <PUBCHEM_CONFORMER_DIVERSEORDER>
1
67
142
59
127
130
143
132
138
89
11
101
45
17
55
78
60
61
102
32
141
123
4
37
76
140
7
137
88
58
14
51
99
83
5
124
69
74
21
106
3
113
49
131
38
128
31
12
54
139
71
129
119
87
20
30
50
80
66
95
8
82
112
10
108
103
84
18
29
22
34
93
24
121
120
9
63
43
116
90
52
125
16
86
42
136
40
47
70
98
100
23
68
27
75
56
91
36
126
94
64
115
104
81
65
111
109
2
110
133
117
46
25
96
19
73
33
44
41
105
39
134
28
13
77
6
92
48
72
118
122
53
62
57
97
35
26
15
85
79
135
107
114

> <PUBCHEM_MMFF94_PARTIAL_CHARGES>
5
1 -0.43
2 -0.57
3 0.06
6 0.28
9 0.66

> <PUBCHEM_EFFECTIVE_ROTOR_COUNT>
6.8

> <PUBCHEM_PHARMACOPHORE_FEATURES>
5
1 14 hydrophobe
1 2 acceptor
3 10 12 13 hydrophobe
3 5 7 8 hydrophobe
5 1 3 4 6 9 rings

> <PUBCHEM_HEAVY_ATOM_COUNT>
14

> <PUBCHEM_ATOM_DEF_STEREO_COUNT>
0

> <PUBCHEM_ATOM_UDEF_STEREO_COUNT>
2

> <PUBCHEM_BOND_DEF_STEREO_COUNT>
0

> <PUBCHEM_BOND_UDEF_STEREO_COUNT>
0

> <PUBCHEM_ISOTOPIC_ATOM_COUNT>
0

> <PUBCHEM_COMPONENT_COUNT>
1

> <PUBCHEM_CACTVS_TAUTO_COUNT>
2

> <PUBCHEM_CONFORMER_ID>
0000F22600000001

> <PUBCHEM_MMFF94_ENERGY>
6.723

> <PUBCHEM_FEATURE_SELFOVERLAP>
25.384

> <PUBCHEM_SHAPE_FINGERPRINT>
10680689 15 17917989485968142231
10912923 1 17968094210104398280
11287383 113 18272931648679117056
11315181 36 18334015008111491472
12091667 2 17989485217301808532
13167823 11 18409163295154889434
13288520 33 18410575101858837399
14123238 8 18334012792266868030
1420 363 17988929981257558238
14251718 22 18409167727771758650
14251732 16 18337672031525941480
14251740 79 16878512357321809475
17834072 33 18409731794400995708
17834076 25 17022902346274290986
17844677 252 18273218616697849608
18927931 339 18343586260941684967
19433438 28 18272366499264726944
19489759 90 18411135827404301800
1986462 14 18410293605465403565
200 152 18409166619348404002
20645477 56 18341895130791682457
21267235 1 18409736191677431851
21426921 1 18410292493564966781
220451 1 18259990336585234354
2297311 6 18202290203557534444
2306618 200 17989494004873650305
23081809 10 17967535658524405436
23402539 116 18186799167312307796
23557571 272 18201160962060984860
23559900 14 18341039808980816616
4214541 1 18412262822353971816
42788 4 18412262831624076596
5104073 3 18413950585898623744
559249 180 18336542725108821802
573450 72 18335692806836078994
57483677 66 18410290294721039842
6327066 14 17973156228348065477
7062679 117 18334015008148453794

> <PUBCHEM_SHAPE_MULTIPOLES>
276.37
14.37
1.49
0.72
24.26
0.2
0
-2.9
-0.02
-2.47
0.17
-0.24
-0.1
-0.07

> <PUBCHEM_SHAPE_SELFOVERLAP>
531.465

> <PUBCHEM_SHAPE_VOLUME>
171.2

> <PUBCHEM_COORDINATE_TYPE>
2
5
10

$$$$
