62000
  -OEChem-11232109123D

 17 16  0     0  0  0  0  0  0999 V2000
    2.4031   -0.8390   -0.0325 S   0  0  0  0  0  0  0  0  0  0  0  0
   -3.0070   -0.8798    0.0352 O   0  0  0  0  0  0  0  0  0  0  0  0
   -0.2704   -0.1792   -0.0333 C   0  0  0  0  0  0  0  0  0  0  0  0
    1.1208    0.4463   -0.0085 C   0  0  0  0  0  0  0  0  0  0  0  0
   -1.3529    0.8970   -0.0123 C   0  0  0  0  0  0  0  0  0  0  0  0
   -2.7473    0.3184    0.0047 C   0  0  0  0  0  0  0  0  0  0  0  0
    3.8537    0.2363    0.0468 C   0  0  0  0  0  0  0  0  0  0  0  0
   -0.3936   -0.7986   -0.9312 H   0  0  0  0  0  0  0  0  0  0  0  0
   -0.4012   -0.8420    0.8319 H   0  0  0  0  0  0  0  0  0  0  0  0
    1.2557    1.0963   -0.8794 H   0  0  0  0  0  0  0  0  0  0  0  0
    1.2429    1.0504    0.8968 H   0  0  0  0  0  0  0  0  0  0  0  0
   -1.2496    1.5286    0.8766 H   0  0  0  0  0  0  0  0  0  0  0  0
   -1.2718    1.5367   -0.8978 H   0  0  0  0  0  0  0  0  0  0  0  0
   -3.5600    1.0652   -0.0054 H   0  0  0  0  0  0  0  0  0  0  0  0
    3.8421    0.8254    0.9675 H   0  0  0  0  0  0  0  0  0  0  0  0
    3.8810    0.9044   -0.8179 H   0  0  0  0  0  0  0  0  0  0  0  0
    4.7581   -0.3779    0.0393 H   0  0  0  0  0  0  0  0  0  0  0  0
  1  4  1  0  0  0  0
  1  7  1  0  0  0  0
  2  6  2  0  0  0  0
  3  4  1  0  0  0  0
  3  5  1  0  0  0  0
  3  8  1  0  0  0  0
  3  9  1  0  0  0  0
  4 10  1  0  0  0  0
  4 11  1  0  0  0  0
  5  6  1  0  0  0  0
  5 12  1  0  0  0  0
  5 13  1  0  0  0  0
  6 14  1  0  0  0  0
  7 15  1  0  0  0  0
  7 16  1  0  0  0  0
  7 17  1  0  0  0  0
M  END
> <PUBCHEM_COMPOUND_CID>
62000

> <PUBCHEM_CONFORMER_RMSD>
0.6

> <PUBCHEM_CONFORMER_DIVERSEORDER>
1
21
23
13
10
20
6
5
22
17
3
7
16
12
8
19
9
4
18
11
14
15
2

> <PUBCHEM_MMFF94_PARTIAL_CHARGES>
7
1 -0.46
14 0.06
2 -0.57
4 0.23
5 0.06
6 0.45
7 0.23

> <PUBCHEM_EFFECTIVE_ROTOR_COUNT>
4

> <PUBCHEM_PHARMACOPHORE_FEATURES>
3
1 2 acceptor
1 7 hydrophobe
4 1 3 4 5 hydrophobe

> <PUBCHEM_HEAVY_ATOM_COUNT>
7

> <PUBCHEM_ATOM_DEF_STEREO_COUNT>
0

> <PUBCHEM_ATOM_UDEF_STEREO_COUNT>
0

> <PUBCHEM_BOND_DEF_STEREO_COUNT>
0

> <PUBCHEM_BOND_UDEF_STEREO_COUNT>
0

> <PUBCHEM_ISOTOPIC_ATOM_COUNT>
0

> <PUBCHEM_COMPONENT_COUNT>
1

> <PUBCHEM_CACTVS_TAUTO_COUNT>
2

> <PUBCHEM_CONFORMER_ID>
0000F23000000001

> <PUBCHEM_MMFF94_ENERGY>
5.3753

> <PUBCHEM_FEATURE_SELFOVERLAP>
15.223

> <PUBCHEM_SHAPE_FINGERPRINT>
11062470 55 16877942732825243548
12932764 1 15769482141414298508
14325111 11 18410855426016369262
14390081 3 18412543180834266960
5460574 1 9223225252284608780

> <PUBCHEM_SHAPE_MULTIPOLES>
142.04
6.22
0.99
0.62
1.77
0.07
0
0.43
-0.11
-0.11
0
0.07
0
0.03

> <PUBCHEM_SHAPE_SELFOVERLAP>
236.366

> <PUBCHEM_SHAPE_VOLUME>
97.5

> <PUBCHEM_COORDINATE_TYPE>
2
5
10

$$$$
