62003
  -OEChem-11232109453D

 32 31  0     1  0  0  0  0  0999 V2000
    4.8955   -0.4164   -0.2728 O   0  0  0  0  0  0  0  0  0  0  0  0
    3.2305   -1.9156    0.0962 O   0  0  0  0  0  0  0  0  0  0  0  0
    0.3144    1.3053    0.4062 C   0  0  1  0  0  0  0  0  0  0  0  0
   -1.1143    0.9573    0.8734 C   0  0  0  0  0  0  0  0  0  0  0  0
   -1.9576    0.1715   -0.1361 C   0  0  0  0  0  0  0  0  0  0  0  0
    1.2446    0.0870    0.2468 C   0  0  0  0  0  0  0  0  0  0  0  0
   -3.3699   -0.0769    0.4014 C   0  0  0  0  0  0  0  0  0  0  0  0
    0.2960    2.1154   -0.8945 C   0  0  0  0  0  0  0  0  0  0  0  0
    2.7090    0.4619    0.0120 C   0  0  0  0  0  0  0  0  0  0  0  0
   -4.2281   -0.8269   -0.6170 C   0  0  0  0  0  0  0  0  0  0  0  0
   -5.6212   -1.1044   -0.0747 C   0  0  0  0  0  0  0  0  0  0  0  0
    3.6010   -0.7581   -0.0409 C   0  0  0  0  0  0  0  0  0  0  0  0
    0.7420    1.9486    1.1875 H   0  0  0  0  0  0  0  0  0  0  0  0
   -1.0512    0.3896    1.8105 H   0  0  0  0  0  0  0  0  0  0  0  0
   -1.6354    1.8928    1.1159 H   0  0  0  0  0  0  0  0  0  0  0  0
   -1.4774   -0.7883   -0.3572 H   0  0  0  0  0  0  0  0  0  0  0  0
   -2.0320    0.7246   -1.0787 H   0  0  0  0  0  0  0  0  0  0  0  0
    0.8966   -0.5495   -0.5765 H   0  0  0  0  0  0  0  0  0  0  0  0
    1.1766   -0.5258    1.1552 H   0  0  0  0  0  0  0  0  0  0  0  0
   -3.8459    0.8807    0.6455 H   0  0  0  0  0  0  0  0  0  0  0  0
   -3.3107   -0.6551    1.3316 H   0  0  0  0  0  0  0  0  0  0  0  0
    1.2599    2.6029   -1.0715 H   0  0  0  0  0  0  0  0  0  0  0  0
   -0.4555    2.9111   -0.8458 H   0  0  0  0  0  0  0  0  0  0  0  0
    0.0726    1.4882   -1.7637 H   0  0  0  0  0  0  0  0  0  0  0  0
    3.0637    1.1065    0.8234 H   0  0  0  0  0  0  0  0  0  0  0  0
    2.8214    0.9867   -0.9418 H   0  0  0  0  0  0  0  0  0  0  0  0
   -4.3104   -0.2400   -1.5392 H   0  0  0  0  0  0  0  0  0  0  0  0
   -3.7495   -1.7778   -0.8790 H   0  0  0  0  0  0  0  0  0  0  0  0
   -6.1400   -0.1718    0.1691 H   0  0  0  0  0  0  0  0  0  0  0  0
   -6.2178   -1.6405   -0.8193 H   0  0  0  0  0  0  0  0  0  0  0  0
   -5.5750   -1.7189    0.8300 H   0  0  0  0  0  0  0  0  0  0  0  0
    5.4797   -1.2034   -0.3123 H   0  0  0  0  0  0  0  0  0  0  0  0
  1 12  1  0  0  0  0
  1 32  1  0  0  0  0
  2 12  2  0  0  0  0
  3  4  1  0  0  0  0
  3  6  1  0  0  0  0
  3  8  1  0  0  0  0
  3 13  1  0  0  0  0
  4  5  1  0  0  0  0
  4 14  1  0  0  0  0
  4 15  1  0  0  0  0
  5  7  1  0  0  0  0
  5 16  1  0  0  0  0
  5 17  1  0  0  0  0
  6  9  1  0  0  0  0
  6 18  1  0  0  0  0
  6 19  1  0  0  0  0
  7 10  1  0  0  0  0
  7 20  1  0  0  0  0
  7 21  1  0  0  0  0
  8 22  1  0  0  0  0
  8 23  1  0  0  0  0
  8 24  1  0  0  0  0
  9 12  1  0  0  0  0
  9 25  1  0  0  0  0
  9 26  1  0  0  0  0
 10 11  1  0  0  0  0
 10 27  1  0  0  0  0
 10 28  1  0  0  0  0
 11 29  1  0  0  0  0
 11 30  1  0  0  0  0
 11 31  1  0  0  0  0
M  END
> <PUBCHEM_COMPOUND_CID>
62003

> <PUBCHEM_CONFORMER_RMSD>
0.8

> <PUBCHEM_CONFORMER_DIVERSEORDER>
3
78
108
89
99
8
42
22
106
80
11
55
24
79
47
74
1
16
35
109
66
37
7
94
25
70
14
48
102
76
32
10
5
64
107
44
82
49
12
34
101
17
110
77
59
71
21
84
9
100
61
28
56
53
92
4
33
88
15
45
63
103
83
72
69
27
93
81
91
90
58
75
97
26
104
2
39
18
86
52
60
105
6
57
46
54
43
95
41
36
96
29
85
87
19
65
68
23
51
13
20
73
98
38
40
62
30
67
31
50

> <PUBCHEM_MMFF94_PARTIAL_CHARGES>
5
1 -0.65
12 0.66
2 -0.57
32 0.5
9 0.06

> <PUBCHEM_EFFECTIVE_ROTOR_COUNT>
7

> <PUBCHEM_PHARMACOPHORE_FEATURES>
5
1 1 acceptor
1 11 hydrophobe
1 2 acceptor
1 8 hydrophobe
3 1 2 12 anion

> <PUBCHEM_HEAVY_ATOM_COUNT>
12

> <PUBCHEM_ATOM_DEF_STEREO_COUNT>
0

> <PUBCHEM_ATOM_UDEF_STEREO_COUNT>
1

> <PUBCHEM_BOND_DEF_STEREO_COUNT>
0

> <PUBCHEM_BOND_UDEF_STEREO_COUNT>
0

> <PUBCHEM_ISOTOPIC_ATOM_COUNT>
0

> <PUBCHEM_COMPONENT_COUNT>
1

> <PUBCHEM_CACTVS_TAUTO_COUNT>
1

> <PUBCHEM_CONFORMER_ID>
0000F23300000003

> <PUBCHEM_MMFF94_ENERGY>
6.202

> <PUBCHEM_FEATURE_SELFOVERLAP>
25.43

> <PUBCHEM_SHAPE_FINGERPRINT>
100836 57 9295286162000573994
114248 4 16877662378961695055
11806522 49 18412545422559217264
122479 349 9511164266360634860
12251169 10 14692568836179843249
13690532 89 18412544331959205859
14123255 52 9007063461208491273
1420 369 18202286887784954703
14252887 29 17418383480118897638
14455015 7 18261961838343656883
14576447 43 18408886230919583698
15342816 4 18410299068985661542
15477762 27 18335421304562666557
177051 138 18202283597697210752
17834072 33 18342459282787099556
17834072 8 18335974304036861805
1798214 20 18408319982172803203
187816 3 17095525084508807456
19784866 240 18341901813860547467
20112054 13 10879989168384674345
20281475 54 18340208475421888280
20388580 30 18334298694764420221
20645477 70 18188206623684091081
20671657 53 18408606976414786365
20724930 69 7853572409304117224
20767249 142 18413107277475579363
20871999 31 17894907391501694653
21119208 17 15791450430823784111
21256008 61 18334012813040318408
22485316 2 18341330011314910441
231179 274 9439414522814843315
23402539 116 18260828159401610892
23532345 12 18343026597097382105
2871803 45 18260547788606217170
298252 57 12685094791153047873
351380 3 18201999941072754015
4047638 21 7997975686574781640
42 15 17846782931764044867
94968 8 18410009936003069258

> <PUBCHEM_SHAPE_MULTIPOLES>
235.22
10.41
1.69
0.81
5.6
0.28
0.01
-6.97
1.1
-0.73
0.24
0.22
0.21
-0.28

> <PUBCHEM_SHAPE_SELFOVERLAP>
428.627

> <PUBCHEM_SHAPE_VOLUME>
150.3

> <PUBCHEM_COORDINATE_TYPE>
2
5
10

$$$$
