62087
  -OEChem-11232109233D

 16 15  0     1  0  0  0  0  0999 V2000
   -1.1092   -1.5154    0.6102 S   0  0  0  0  0  0  0  0  0  0  0  0
    0.8845    0.9639    1.0012 O   0  0  0  0  0  0  0  0  0  0  0  0
   -0.6733   -0.1332   -0.5102 C   0  0  2  0  0  0  0  0  0  0  0  0
    0.7625    0.3844   -0.2963 C   0  0  2  0  0  0  0  0  0  0  0  0
   -1.7081    0.9769   -0.3260 C   0  0  0  0  0  0  0  0  0  0  0  0
    1.8436   -0.6766   -0.4790 C   0  0  0  0  0  0  0  0  0  0  0  0
   -0.7570   -0.5202   -1.5322 H   0  0  0  0  0  0  0  0  0  0  0  0
    0.9459    1.1875   -1.0209 H   0  0  0  0  0  0  0  0  0  0  0  0
   -2.7174    0.6219   -0.5637 H   0  0  0  0  0  0  0  0  0  0  0  0
   -1.7181    1.3718    0.6961 H   0  0  0  0  0  0  0  0  0  0  0  0
   -1.4931    1.8127   -1.0012 H   0  0  0  0  0  0  0  0  0  0  0  0
    1.7417   -1.1881   -1.4407 H   0  0  0  0  0  0  0  0  0  0  0  0
    1.8305   -1.4178    0.3265 H   0  0  0  0  0  0  0  0  0  0  0  0
    2.8346   -0.2099   -0.4427 H   0  0  0  0  0  0  0  0  0  0  0  0
   -0.9188   -0.8495    1.7588 H   0  0  0  0  0  0  0  0  0  0  0  0
    1.7885    1.3125    1.0838 H   0  0  0  0  0  0  0  0  0  0  0  0
  1  3  1  0  0  0  0
  1 15  1  0  0  0  0
  2  4  1  0  0  0  0
  2 16  1  0  0  0  0
  3  4  1  0  0  0  0
  3  5  1  0  0  0  0
  3  7  1  0  0  0  0
  4  6  1  0  0  0  0
  4  8  1  0  0  0  0
  5  9  1  0  0  0  0
  5 10  1  0  0  0  0
  5 11  1  0  0  0  0
  6 12  1  0  0  0  0
  6 13  1  0  0  0  0
  6 14  1  0  0  0  0
M  END
> <PUBCHEM_COMPOUND_CID>
62087

> <PUBCHEM_CONFORMER_RMSD>
0.4

> <PUBCHEM_CONFORMER_DIVERSEORDER>
2
4
5
9
6
10
7
8
1
3

> <PUBCHEM_MMFF94_PARTIAL_CHARGES>
6
1 -0.41
15 0.18
16 0.4
2 -0.68
3 0.23
4 0.28

> <PUBCHEM_EFFECTIVE_ROTOR_COUNT>
1

> <PUBCHEM_PHARMACOPHORE_FEATURES>
2
1 2 acceptor
1 2 donor

> <PUBCHEM_HEAVY_ATOM_COUNT>
6

> <PUBCHEM_ATOM_DEF_STEREO_COUNT>
0

> <PUBCHEM_ATOM_UDEF_STEREO_COUNT>
2

> <PUBCHEM_BOND_DEF_STEREO_COUNT>
0

> <PUBCHEM_BOND_UDEF_STEREO_COUNT>
0

> <PUBCHEM_ISOTOPIC_ATOM_COUNT>
0

> <PUBCHEM_COMPONENT_COUNT>
1

> <PUBCHEM_CACTVS_TAUTO_COUNT>
1

> <PUBCHEM_CONFORMER_ID>
0000F28700000002

> <PUBCHEM_MMFF94_ENERGY>
7.3873

> <PUBCHEM_FEATURE_SELFOVERLAP>
10.148

> <PUBCHEM_SHAPE_FINGERPRINT>
139733 1 11166574645192694959
16714656 1 17822865177440687455
20096714 4 18200301131098687621
21040471 1 18187638042785912669
24536 1 18189323731365663029
29004967 10 17846786186974942742
5943 1 16010123528011641363

> <PUBCHEM_SHAPE_MULTIPOLES>
121.46
2.2
1.46
0.91
0.36
0.43
-0.15
0.08
0.22
-0.63
-0.19
0.13
-0.08
0.38

> <PUBCHEM_SHAPE_SELFOVERLAP>
203.184

> <PUBCHEM_SHAPE_VOLUME>
84.9

> <PUBCHEM_COORDINATE_TYPE>
2
5
10

$$$$
