62095
  -OEChem-11232109463D

 27 27  0     1  0  0  0  0  0999 V2000
   -0.3028    2.5220    0.6355 O   0  0  0  0  0  0  0  0  0  0  0  0
   -0.5145    0.4186   -0.5197 C   0  0  2  0  0  0  0  0  0  0  0  0
   -1.8004   -0.4171   -0.5606 C   0  0  1  0  0  0  0  0  0  0  0  0
    0.5655   -0.6739   -0.5208 C   0  0  2  0  0  0  0  0  0  0  0  0
   -1.5206   -1.5944    0.3809 C   0  0  0  0  0  0  0  0  0  0  0  0
    0.0029   -1.7595    0.4080 C   0  0  0  0  0  0  0  0  0  0  0  0
   -3.0830    0.3304   -0.2275 C   0  0  0  0  0  0  0  0  0  0  0  0
    1.9417   -0.2245   -0.1550 C   0  0  0  0  0  0  0  0  0  0  0  0
   -0.4356    1.3041    0.6945 C   0  0  0  0  0  0  0  0  0  0  0  0
    2.5537    0.8202   -1.0403 C   0  0  0  0  0  0  0  0  0  0  0  0
    2.5931   -0.7259    0.9050 C   0  0  0  0  0  0  0  0  0  0  0  0
   -0.4396    1.0538   -1.4104 H   0  0  0  0  0  0  0  0  0  0  0  0
   -1.9065   -0.8191   -1.5785 H   0  0  0  0  0  0  0  0  0  0  0  0
    0.6124   -1.1042   -1.5323 H   0  0  0  0  0  0  0  0  0  0  0  0
   -2.0133   -2.5060    0.0254 H   0  0  0  0  0  0  0  0  0  0  0  0
   -1.8948   -1.3975    1.3926 H   0  0  0  0  0  0  0  0  0  0  0  0
    0.2835   -1.6567    1.4599 H   0  0  0  0  0  0  0  0  0  0  0  0
    0.3013   -2.7615    0.0802 H   0  0  0  0  0  0  0  0  0  0  0  0
   -3.0877    0.7007    0.8026 H   0  0  0  0  0  0  0  0  0  0  0  0
   -3.2168    1.1853   -0.8981 H   0  0  0  0  0  0  0  0  0  0  0  0
   -3.9495   -0.3292   -0.3442 H   0  0  0  0  0  0  0  0  0  0  0  0
   -0.5054    0.8031    1.6752 H   0  0  0  0  0  0  0  0  0  0  0  0
    2.5701    0.4750   -2.0793 H   0  0  0  0  0  0  0  0  0  0  0  0
    1.9900    1.7565   -0.9946 H   0  0  0  0  0  0  0  0  0  0  0  0
    3.5867    1.0457   -0.7542 H   0  0  0  0  0  0  0  0  0  0  0  0
    3.5924   -0.3656    1.1373 H   0  0  0  0  0  0  0  0  0  0  0  0
    2.2354   -1.4988    1.5690 H   0  0  0  0  0  0  0  0  0  0  0  0
  1  9  2  0  0  0  0
  2  3  1  0  0  0  0
  2  4  1  0  0  0  0
  2  9  1  0  0  0  0
  2 12  1  0  0  0  0
  3  5  1  0  0  0  0
  3  7  1  0  0  0  0
  3 13  1  0  0  0  0
  4  6  1  0  0  0  0
  4  8  1  0  0  0  0
  4 14  1  0  0  0  0
  5  6  1  0  0  0  0
  5 15  1  0  0  0  0
  5 16  1  0  0  0  0
  6 17  1  0  0  0  0
  6 18  1  0  0  0  0
  7 19  1  0  0  0  0
  7 20  1  0  0  0  0
  7 21  1  0  0  0  0
  8 10  1  0  0  0  0
  8 11  2  0  0  0  0
  9 22  1  0  0  0  0
 10 23  1  0  0  0  0
 10 24  1  0  0  0  0
 10 25  1  0  0  0  0
 11 26  1  0  0  0  0
 11 27  1  0  0  0  0
M  END
> <PUBCHEM_COMPOUND_CID>
62095

> <PUBCHEM_CONFORMER_RMSD>
0.6

> <PUBCHEM_CONFORMER_DIVERSEORDER>
1
2
3
5
4
8
7
6

> <PUBCHEM_MMFF94_PARTIAL_CHARGES>
10
1 -0.57
10 0.14
11 -0.3
2 0.06
22 0.06
26 0.15
27 0.15
4 0.14
8 -0.28
9 0.45

> <PUBCHEM_EFFECTIVE_ROTOR_COUNT>
3

> <PUBCHEM_PHARMACOPHORE_FEATURES>
2
1 1 acceptor
5 2 3 4 5 6 rings

> <PUBCHEM_HEAVY_ATOM_COUNT>
11

> <PUBCHEM_ATOM_DEF_STEREO_COUNT>
3

> <PUBCHEM_ATOM_UDEF_STEREO_COUNT>
0

> <PUBCHEM_BOND_DEF_STEREO_COUNT>
0

> <PUBCHEM_BOND_UDEF_STEREO_COUNT>
0

> <PUBCHEM_ISOTOPIC_ATOM_COUNT>
0

> <PUBCHEM_COMPONENT_COUNT>
1

> <PUBCHEM_CACTVS_TAUTO_COUNT>
2

> <PUBCHEM_CONFORMER_ID>
0000F28F00000001

> <PUBCHEM_MMFF94_ENERGY>
25.731

> <PUBCHEM_FEATURE_SELFOVERLAP>
10.148

> <PUBCHEM_SHAPE_FINGERPRINT>
12423570 1 12225848618331430392
12524768 44 18059297672624746892
13024252 1 12540699197478434790
15076042 46 18338232661674900490
15775835 57 17749116607865987102
161256 15 17545890785401415495
16945 1 18341615884406671479
17775402 16 18409447011534855565
22802520 49 17771379459175731398
23552333 60 17967248702499486192
23552423 10 18263365789347159622
241688 4 17252862758928710498
2748010 2 18125156288687678301
369184 2 17095239232891889222
4369600 1 18342739649661955614
5084963 1 18197216945232460646
53812653 8 18337402542953731884
54338 74 18410855434411462992

> <PUBCHEM_SHAPE_MULTIPOLES>
220.51
3.68
1.92
0.97
0.18
0.51
0
0.01
-0.38
-0.27
0.56
0.32
0.14
-0.34

> <PUBCHEM_SHAPE_SELFOVERLAP>
439.044

> <PUBCHEM_SHAPE_VOLUME>
133

> <PUBCHEM_COORDINATE_TYPE>
2
5
10

$$$$
