62090
  -OEChem-11232108413D

 29 28  0     1  0  0  0  0  0999 V2000
   -0.2282   -0.3847   -1.0454 S   0  0  0  0  0  0  0  0  0  0  0  0
   -3.6965   -0.8092   -0.3172 S   0  0  0  0  0  0  0  0  0  0  0  0
    2.0241    1.6380   -0.2230 O   0  0  0  0  0  0  0  0  0  0  0  0
   -1.0778   -0.0777    0.5174 C   0  0  1  0  0  0  0  0  0  0  0  0
    1.4374   -0.7231   -0.3621 C   0  0  2  0  0  0  0  0  0  0  0  0
   -2.5326    0.4300    0.3684 C   0  0  1  0  0  0  0  0  0  0  0  0
    1.9693    0.4225    0.5211 C   0  0  1  0  0  0  0  0  0  0  0  0
   -0.9703   -1.3352    1.3828 C   0  0  0  0  0  0  0  0  0  0  0  0
    2.3808   -1.0238   -1.5269 C   0  0  0  0  0  0  0  0  0  0  0  0
   -2.6431    1.7152   -0.4543 C   0  0  0  0  0  0  0  0  0  0  0  0
    3.3369    0.1479    1.1391 C   0  0  0  0  0  0  0  0  0  0  0  0
   -0.5817    0.7449    1.0366 H   0  0  0  0  0  0  0  0  0  0  0  0
    1.3894   -1.6457    0.2244 H   0  0  0  0  0  0  0  0  0  0  0  0
   -2.9085    0.6553    1.3743 H   0  0  0  0  0  0  0  0  0  0  0  0
    1.3208    0.5972    1.3812 H   0  0  0  0  0  0  0  0  0  0  0  0
   -1.2357   -2.2513    0.8436 H   0  0  0  0  0  0  0  0  0  0  0  0
   -1.6490   -1.2584    2.2412 H   0  0  0  0  0  0  0  0  0  0  0  0
    0.0249   -1.4634    1.8179 H   0  0  0  0  0  0  0  0  0  0  0  0
    1.9914   -1.8352   -2.1533 H   0  0  0  0  0  0  0  0  0  0  0  0
    2.5373   -0.1482   -2.1667 H   0  0  0  0  0  0  0  0  0  0  0  0
    3.3609   -1.3547   -1.1685 H   0  0  0  0  0  0  0  0  0  0  0  0
   -1.9612    2.4793   -0.0647 H   0  0  0  0  0  0  0  0  0  0  0  0
   -2.4066    1.5637   -1.5127 H   0  0  0  0  0  0  0  0  0  0  0  0
   -3.6561    2.1304   -0.3965 H   0  0  0  0  0  0  0  0  0  0  0  0
    3.5989    0.9485    1.8403 H   0  0  0  0  0  0  0  0  0  0  0  0
    4.1276    0.1415    0.3821 H   0  0  0  0  0  0  0  0  0  0  0  0
    3.3477   -0.8030    1.6801 H   0  0  0  0  0  0  0  0  0  0  0  0
   -3.0747   -0.9679   -1.4950 H   0  0  0  0  0  0  0  0  0  0  0  0
    1.1342    1.8007   -0.5798 H   0  0  0  0  0  0  0  0  0  0  0  0
  1  4  1  0  0  0  0
  1  5  1  0  0  0  0
  2  6  1  0  0  0  0
  2 28  1  0  0  0  0
  3  7  1  0  0  0  0
  3 29  1  0  0  0  0
  4  6  1  0  0  0  0
  4  8  1  0  0  0  0
  4 12  1  0  0  0  0
  5  7  1  0  0  0  0
  5  9  1  0  0  0  0
  5 13  1  0  0  0  0
  6 10  1  0  0  0  0
  6 14  1  0  0  0  0
  7 11  1  0  0  0  0
  7 15  1  0  0  0  0
  8 16  1  0  0  0  0
  8 17  1  0  0  0  0
  8 18  1  0  0  0  0
  9 19  1  0  0  0  0
  9 20  1  0  0  0  0
  9 21  1  0  0  0  0
 10 22  1  0  0  0  0
 10 23  1  0  0  0  0
 10 24  1  0  0  0  0
 11 25  1  0  0  0  0
 11 26  1  0  0  0  0
 11 27  1  0  0  0  0
M  END
> <PUBCHEM_COMPOUND_CID>
62090

> <PUBCHEM_CONFORMER_RMSD>
0.6

> <PUBCHEM_CONFORMER_DIVERSEORDER>
6
55
5
72
85
63
68
52
76
77
11
56
86
1
48
12
66
82
84
32
80
51
53
4
45
74
2
40
75
7
37
9
90
67
3
81
50
87
61
26
44
18
89
62
71
15
79
35
34
16
42
20
83
46
78
27
13
64
57
58
17
88
54
31
38
19
47
22
33
65
29
36
41
70
39
10
49
14
73
21
24
23
69
8
43
60
28
30
25
59

> <PUBCHEM_MMFF94_PARTIAL_CHARGES>
9
1 -0.46
2 -0.41
28 0.18
29 0.4
3 -0.68
4 0.23
5 0.23
6 0.23
7 0.28

> <PUBCHEM_EFFECTIVE_ROTOR_COUNT>
4

> <PUBCHEM_PHARMACOPHORE_FEATURES>
4
1 3 acceptor
1 3 donor
1 8 hydrophobe
1 9 hydrophobe

> <PUBCHEM_HEAVY_ATOM_COUNT>
11

> <PUBCHEM_ATOM_DEF_STEREO_COUNT>
0

> <PUBCHEM_ATOM_UDEF_STEREO_COUNT>
4

> <PUBCHEM_BOND_DEF_STEREO_COUNT>
0

> <PUBCHEM_BOND_UDEF_STEREO_COUNT>
0

> <PUBCHEM_ISOTOPIC_ATOM_COUNT>
0

> <PUBCHEM_COMPONENT_COUNT>
1

> <PUBCHEM_CACTVS_TAUTO_COUNT>
1

> <PUBCHEM_CONFORMER_ID>
0000F28A00000006

> <PUBCHEM_MMFF94_ENERGY>
25.5141

> <PUBCHEM_FEATURE_SELFOVERLAP>
20.297

> <PUBCHEM_SHAPE_FINGERPRINT>
12162725 195 18408037429196205057
12716758 59 18339085869955428091
12932741 1 18339942462037474646
12932764 1 18339371751415701063
14325111 11 17561366166817571239
14993402 34 16588031216417019671
15219456 202 18060421279150896255
15310529 11 16845573097855947587
15775835 57 17749949955901661881
16945 1 18186811278872253571
18186145 218 18271250409047194875
19973954 147 18271251529833575797
20201158 50 18413389847383685331
20645464 45 18334575741455398435
20653085 51 18271257010438419617
20715346 28 18130790027275368052
21028194 46 17988920110868648682
230 275 18341330015789173848
23402539 116 18263907969255163607
23526113 38 18122090657312928638
23557571 272 18201432571798165801
305870 269 17823969040076179667
3248919 1 18411425033063597923
5084963 1 17917724477927881391
57812782 119 18412259541088323191
8030462 33 17748833998880909227

> <PUBCHEM_SHAPE_MULTIPOLES>
228.2
5.79
1.48
1.34
0.99
0.35
-0.11
0.41
-0.09
0.24
0.26
-0.47
-0.36
0.74

> <PUBCHEM_SHAPE_SELFOVERLAP>
394.933

> <PUBCHEM_SHAPE_VOLUME>
154.4

> <PUBCHEM_COORDINATE_TYPE>
2
5
10

$$$$
