6210220
  -OEChem-11232109473D

 18 18  0     0  0  0  0  0  0999 V2000
   -1.3140    0.8775   -0.3865 O   0  0  0  0  0  0  0  0  0  0  0  0
    3.8638   -0.0062    0.0146 O   0  0  0  0  0  0  0  0  0  0  0  0
   -0.9355   -0.3863   -0.0922 C   0  0  0  0  0  0  0  0  0  0  0  0
    0.4254   -0.8043   -0.1953 C   0  0  0  0  0  0  0  0  0  0  0  0
    1.4734    0.0099    0.0228 C   0  0  0  0  0  0  0  0  0  0  0  0
   -2.0011   -1.1514    0.2938 C   0  0  0  0  0  0  0  0  0  0  0  0
    1.4578    1.4498    0.4383 C   0  0  0  0  0  0  0  0  0  0  0  0
   -3.1273   -0.2965    0.2345 C   0  0  0  0  0  0  0  0  0  0  0  0
   -2.6569    0.9262   -0.1847 C   0  0  0  0  0  0  0  0  0  0  0  0
    2.8142   -0.6186   -0.1453 C   0  0  0  0  0  0  0  0  0  0  0  0
    0.5877   -1.8519   -0.4387 H   0  0  0  0  0  0  0  0  0  0  0  0
   -1.9863   -2.1929    0.5840 H   0  0  0  0  0  0  0  0  0  0  0  0
    2.2752    1.6651    1.1353 H   0  0  0  0  0  0  0  0  0  0  0  0
    0.5406    1.7294    0.9633 H   0  0  0  0  0  0  0  0  0  0  0  0
    1.5755    2.0977   -0.4360 H   0  0  0  0  0  0  0  0  0  0  0  0
   -4.1535   -0.5407    0.4680 H   0  0  0  0  0  0  0  0  0  0  0  0
   -3.1240    1.8808   -0.3778 H   0  0  0  0  0  0  0  0  0  0  0  0
    2.8187   -1.6843   -0.4309 H   0  0  0  0  0  0  0  0  0  0  0  0
  1  3  1  0  0  0  0
  1  9  1  0  0  0  0
  2 10  2  0  0  0  0
  3  4  1  0  0  0  0
  3  6  2  0  0  0  0
  4  5  2  0  0  0  0
  4 11  1  0  0  0  0
  5  7  1  0  0  0  0
  5 10  1  0  0  0  0
  6  8  1  0  0  0  0
  6 12  1  0  0  0  0
  7 13  1  0  0  0  0
  7 14  1  0  0  0  0
  7 15  1  0  0  0  0
  8  9  2  0  0  0  0
  8 16  1  0  0  0  0
  9 17  1  0  0  0  0
 10 18  1  0  0  0  0
M  END
> <PUBCHEM_COMPOUND_CID>
6210220

> <PUBCHEM_CONFORMER_RMSD>
0.4

> <PUBCHEM_CONFORMER_DIVERSEORDER>
1
12
3
9
7
6
10
11
5
4
8
2

> <PUBCHEM_MMFF94_PARTIAL_CHARGES>
15
1 -0.28
10 0.5
11 0.15
12 0.15
16 0.15
17 0.15
18 0.06
2 -0.57
3 0.09
4 -0.11
5 -0.12
6 -0.15
7 0.14
8 -0.15
9 -0.01

> <PUBCHEM_EFFECTIVE_ROTOR_COUNT>
2

> <PUBCHEM_PHARMACOPHORE_FEATURES>
4
1 1 acceptor
1 2 acceptor
1 7 hydrophobe
5 1 3 6 8 9 rings

> <PUBCHEM_HEAVY_ATOM_COUNT>
10

> <PUBCHEM_ATOM_DEF_STEREO_COUNT>
0

> <PUBCHEM_ATOM_UDEF_STEREO_COUNT>
0

> <PUBCHEM_BOND_DEF_STEREO_COUNT>
1

> <PUBCHEM_BOND_UDEF_STEREO_COUNT>
0

> <PUBCHEM_ISOTOPIC_ATOM_COUNT>
0

> <PUBCHEM_COMPONENT_COUNT>
1

> <PUBCHEM_CACTVS_TAUTO_COUNT>
1

> <PUBCHEM_CONFORMER_ID>
005EC2AC00000001

> <PUBCHEM_MMFF94_ENERGY>
12.2125

> <PUBCHEM_FEATURE_SELFOVERLAP>
20.297

> <PUBCHEM_SHAPE_FINGERPRINT>
10219947 1 17489871522933492382
10857977 72 18114462370235018539
11062470 55 12823295693313609546
124424 183 18336539430789557066
12932764 1 14345788396270223543
14325111 11 18409167701390161582
14390081 3 18412259532435130553
15775835 57 18114463366361515099
19973954 147 18338799017294800849
20201158 50 18342176648153271247
20645464 45 18342745100339561455
20871998 184 18269282416393994511
23402539 116 18343011186838639575
23552423 10 18114743862069916311
3248919 1 16877948243379255490
369184 2 18410008858087512659
5084963 1 18335140916318020953

> <PUBCHEM_SHAPE_MULTIPOLES>
194.06
5.47
1.24
0.65
2.12
0.24
0.01
-0.13
0.13
-0.13
0.07
-0.05
0.02
0.31

> <PUBCHEM_SHAPE_SELFOVERLAP>
400.621

> <PUBCHEM_SHAPE_VOLUME>
112.4

> <PUBCHEM_COORDINATE_TYPE>
2
5
10

$$$$
