62132
  -OEChem-11232108563D

 25 26  0     0  0  0  0  0  0999 V2000
   -2.9311    0.4491    1.0905 O   0  0  0  0  0  0  0  0  0  0  0  0
    0.2774   -2.5303    0.0984 O   0  0  0  0  0  0  0  0  0  0  0  0
    1.5574    0.0731   -0.0069 C   0  0  0  0  0  0  0  0  0  0  0  0
    0.1192   -0.1432   -0.0059 C   0  0  0  0  0  0  0  0  0  0  0  0
   -0.8310    0.8268   -0.0659 C   0  0  0  0  0  0  0  0  0  0  0  0
   -2.2341    0.5539   -0.0615 C   0  0  0  0  0  0  0  0  0  0  0  0
    2.2381    0.2424    1.1988 C   0  0  0  0  0  0  0  0  0  0  0  0
    2.2562    0.1114   -1.2136 C   0  0  0  0  0  0  0  0  0  0  0  0
   -3.0349    0.3710   -1.1533 C   0  0  0  0  0  0  0  0  0  0  0  0
    3.6174    0.4499    1.1978 C   0  0  0  0  0  0  0  0  0  0  0  0
    3.6356    0.3187   -1.2145 C   0  0  0  0  0  0  0  0  0  0  0  0
    4.3163    0.4880   -0.0089 C   0  0  0  0  0  0  0  0  0  0  0  0
   -4.3319    0.1338   -0.6389 C   0  0  0  0  0  0  0  0  0  0  0  0
   -0.4385   -1.5364    0.0534 C   0  0  0  0  0  0  0  0  0  0  0  0
   -4.2161    0.1917    0.7305 C   0  0  0  0  0  0  0  0  0  0  0  0
   -0.5319    1.8705   -0.1172 H   0  0  0  0  0  0  0  0  0  0  0  0
    1.7080    0.2147    2.1478 H   0  0  0  0  0  0  0  0  0  0  0  0
    1.7402   -0.0193   -2.1619 H   0  0  0  0  0  0  0  0  0  0  0  0
   -2.7396    0.4012   -2.1928 H   0  0  0  0  0  0  0  0  0  0  0  0
    4.1475    0.5816    2.1365 H   0  0  0  0  0  0  0  0  0  0  0  0
    4.1797    0.3483   -2.1540 H   0  0  0  0  0  0  0  0  0  0  0  0
    5.3903    0.6494   -0.0096 H   0  0  0  0  0  0  0  0  0  0  0  0
   -5.2377   -0.0558   -1.1963 H   0  0  0  0  0  0  0  0  0  0  0  0
   -1.5268   -1.6737    0.0668 H   0  0  0  0  0  0  0  0  0  0  0  0
   -4.9157    0.0775    1.5456 H   0  0  0  0  0  0  0  0  0  0  0  0
  1  6  1  0  0  0  0
  1 15  1  0  0  0  0
  2 14  2  0  0  0  0
  3  4  1  0  0  0  0
  3  7  2  0  0  0  0
  3  8  1  0  0  0  0
  4  5  2  3  0  0  0
  4 14  1  0  0  0  0
  5  6  1  0  0  0  0
  5 16  1  0  0  0  0
  6  9  2  0  0  0  0
  7 10  1  0  0  0  0
  7 17  1  0  0  0  0
  8 11  2  0  0  0  0
  8 18  1  0  0  0  0
  9 13  1  0  0  0  0
  9 19  1  0  0  0  0
 10 12  2  0  0  0  0
 10 20  1  0  0  0  0
 11 12  1  0  0  0  0
 11 21  1  0  0  0  0
 12 22  1  0  0  0  0
 13 15  2  0  0  0  0
 13 23  1  0  0  0  0
 14 24  1  0  0  0  0
 15 25  1  0  0  0  0
M  END
> <PUBCHEM_COMPOUND_CID>
62132

> <PUBCHEM_CONFORMER_RMSD>
0.6

> <PUBCHEM_CONFORMER_DIVERSEORDER>
1
5
4
6
7
3
2

> <PUBCHEM_MMFF94_PARTIAL_CHARGES>
25
1 -0.28
10 -0.15
11 -0.15
12 -0.15
13 -0.15
14 0.5
15 -0.01
16 0.15
17 0.15
18 0.15
19 0.15
2 -0.57
20 0.15
21 0.15
22 0.15
23 0.15
24 0.06
25 0.15
3 0.03
4 -0.01
5 -0.11
6 0.09
7 -0.15
8 -0.15
9 -0.15

> <PUBCHEM_EFFECTIVE_ROTOR_COUNT>
3

> <PUBCHEM_PHARMACOPHORE_FEATURES>
4
1 1 acceptor
1 2 acceptor
5 1 6 9 13 15 rings
6 3 7 8 10 11 12 rings

> <PUBCHEM_HEAVY_ATOM_COUNT>
15

> <PUBCHEM_ATOM_DEF_STEREO_COUNT>
0

> <PUBCHEM_ATOM_UDEF_STEREO_COUNT>
0

> <PUBCHEM_BOND_DEF_STEREO_COUNT>
0

> <PUBCHEM_BOND_UDEF_STEREO_COUNT>
1

> <PUBCHEM_ISOTOPIC_ATOM_COUNT>
0

> <PUBCHEM_COMPONENT_COUNT>
1

> <PUBCHEM_CACTVS_TAUTO_COUNT>
1

> <PUBCHEM_CONFORMER_ID>
0000F2B400000001

> <PUBCHEM_MMFF94_ENERGY>
44.1577

> <PUBCHEM_FEATURE_SELFOVERLAP>
20.297

> <PUBCHEM_SHAPE_FINGERPRINT>
11132069 177 18334857233896970687
11370993 70 15429752895322734073
12119455 92 17822002112410649487
12236239 1 17530963596889585156
12251169 10 16008750220882533082
13167823 11 15864070987763378273
13538477 17 17822292443842006970
13583140 156 16805603719661166377
13675066 3 17458335351969172248
13705890 14 15339117940131841332
14289901 80 15647059286756960557
14943859 89 18412263951898501334
14993402 34 18260551138432593484
15309172 13 18334577944947785467
15375462 478 16588021303368431932
17834072 33 15574721321659303562
18186145 218 17989766683113792416
19422 9 15554447401101164605
200 152 16515399690283770257
204376 136 18408322211134112355
20645477 56 18335698399374374804
23402539 116 18202276988059365188
23402655 69 16343708711733609504
23559900 14 15936400118329279744
265663 24 16877940550976601937
276578 36 18410012113593835786
366044 4 18410572898662193666
4047638 21 18343303691201909664
42 15 14706926228839827297
4214541 1 15698004020127248889
474 4 17702933872341121832
4990 188 17561367270486951526
5104073 3 15841551872898533787
633830 44 18060422408516571249
69090 78 17346594192344994703
77779 3 15913610575064040581
81228 2 17906161107391425747
81539 233 17967529034630359019
8272917 22 16660917768917404274

> <PUBCHEM_SHAPE_MULTIPOLES>
296.95
8.59
1.23
1.22
1.99
0.05
0.49
1.17
-1.86
-0.28
0.23
-0.13
-0.49
-0.23

> <PUBCHEM_SHAPE_SELFOVERLAP>
642.498

> <PUBCHEM_SHAPE_VOLUME>
163

> <PUBCHEM_COORDINATE_TYPE>
2
5
10

$$$$
