62144
  -OEChem-11232108503D

 15 15  0     0  0  0  0  0  0999 V2000
    1.7354   -0.4514   -0.4653 S   0  0  0  0  0  0  0  0  0  0  0  0
   -1.6590    1.1134   -0.1284 O   0  0  0  0  0  0  0  0  0  0  0  0
    4.3118   -0.1223   -0.2437 O   0  0  0  0  0  0  0  0  0  0  0  0
   -0.8516    0.0949    0.2678 C   0  0  0  0  0  0  0  0  0  0  0  0
    0.5389    0.4508    0.5817 C   0  0  0  0  0  0  0  0  0  0  0  0
   -1.5459   -1.0923    0.2876 C   0  0  0  0  0  0  0  0  0  0  0  0
   -2.8648   -0.7834   -0.1228 C   0  0  0  0  0  0  0  0  0  0  0  0
   -2.8823    0.5705   -0.3642 C   0  0  0  0  0  0  0  0  0  0  0  0
    3.2176    0.2198    0.1874 C   0  0  0  0  0  0  0  0  0  0  0  0
    0.7023    1.5252    0.4438 H   0  0  0  0  0  0  0  0  0  0  0  0
    0.7475    0.2167    1.6313 H   0  0  0  0  0  0  0  0  0  0  0  0
   -1.1556   -2.0613    0.5646 H   0  0  0  0  0  0  0  0  0  0  0  0
   -3.6983   -1.4626   -0.2288 H   0  0  0  0  0  0  0  0  0  0  0  0
   -3.6452    1.2618   -0.6911 H   0  0  0  0  0  0  0  0  0  0  0  0
    3.1237    0.9592    0.9988 H   0  0  0  0  0  0  0  0  0  0  0  0
  1  5  1  0  0  0  0
  1  9  1  0  0  0  0
  2  4  1  0  0  0  0
  2  8  1  0  0  0  0
  3  9  2  0  0  0  0
  4  5  1  0  0  0  0
  4  6  2  0  0  0  0
  5 10  1  0  0  0  0
  5 11  1  0  0  0  0
  6  7  1  0  0  0  0
  6 12  1  0  0  0  0
  7  8  2  0  0  0  0
  7 13  1  0  0  0  0
  8 14  1  0  0  0  0
  9 15  1  0  0  0  0
M  END
> <PUBCHEM_COMPOUND_CID>
62144

> <PUBCHEM_CONFORMER_RMSD>
0.6

> <PUBCHEM_CONFORMER_DIVERSEORDER>
1
4
8
9
12
11
5
3
10
2
6
7

> <PUBCHEM_MMFF94_PARTIAL_CHARGES>
13
1 -0.37
12 0.15
13 0.15
14 0.15
15 0.06
2 -0.28
3 -0.57
4 -0.04
5 0.41
6 -0.15
7 -0.15
8 -0.01
9 0.65

> <PUBCHEM_EFFECTIVE_ROTOR_COUNT>
3

> <PUBCHEM_PHARMACOPHORE_FEATURES>
2
1 2 acceptor
5 2 4 6 7 8 rings

> <PUBCHEM_HEAVY_ATOM_COUNT>
9

> <PUBCHEM_ATOM_DEF_STEREO_COUNT>
0

> <PUBCHEM_ATOM_UDEF_STEREO_COUNT>
0

> <PUBCHEM_BOND_DEF_STEREO_COUNT>
0

> <PUBCHEM_BOND_UDEF_STEREO_COUNT>
0

> <PUBCHEM_ISOTOPIC_ATOM_COUNT>
0

> <PUBCHEM_COMPONENT_COUNT>
1

> <PUBCHEM_CACTVS_TAUTO_COUNT>
1

> <PUBCHEM_CONFORMER_ID>
0000F2C000000001

> <PUBCHEM_MMFF94_ENERGY>
2.6894

> <PUBCHEM_FEATURE_SELFOVERLAP>
10.148

> <PUBCHEM_SHAPE_FINGERPRINT>
11062470 55 18186521003570629452
12897270 3 18412544310173048554
12932764 1 17458334252220167576
14325111 11 18409729556358979010
20201158 50 18202284693014279958
21061003 4 17561089141173733137
23402539 116 18336537270568603245
23552423 10 18115304617469038227

> <PUBCHEM_SHAPE_MULTIPOLES>
177.33
6.3
1.01
0.72
5.69
0.05
0
0.2
0.73
-0.58
0
0.02
0.01
0.23

> <PUBCHEM_SHAPE_SELFOVERLAP>
345.247

> <PUBCHEM_SHAPE_VOLUME>
108.8

> <PUBCHEM_COORDINATE_TYPE>
2
5
10

$$$$
