62143
  -OEChem-11232108473D

 21 21  0     0  0  0  0  0  0999 V2000
   -0.8493    0.6994   -0.3062 S   0  0  0  0  0  0  0  0  0  0  0  0
    2.4647   -0.9772   -0.5275 O   0  0  0  0  0  0  0  0  0  0  0  0
   -2.5068   -1.1477    0.5880 O   0  0  0  0  0  0  0  0  0  0  0  0
    0.2756   -0.5443    0.3639 C   0  0  0  0  0  0  0  0  0  0  0  0
    1.7087   -0.1300    0.1930 C   0  0  0  0  0  0  0  0  0  0  0  0
   -3.5887    0.7732   -0.4232 C   0  0  0  0  0  0  0  0  0  0  0  0
   -2.4089   -0.0583    0.0371 C   0  0  0  0  0  0  0  0  0  0  0  0
    2.4007    0.9483    0.6299 C   0  0  0  0  0  0  0  0  0  0  0  0
   -4.9155    0.0895   -0.1388 C   0  0  0  0  0  0  0  0  0  0  0  0
    3.7161    0.7662    0.1406 C   0  0  0  0  0  0  0  0  0  0  0  0
    3.7035   -0.4191   -0.5569 C   0  0  0  0  0  0  0  0  0  0  0  0
    0.0988   -1.5001   -0.1413 H   0  0  0  0  0  0  0  0  0  0  0  0
    0.0724   -0.6835    1.4313 H   0  0  0  0  0  0  0  0  0  0  0  0
   -3.5643    1.7389    0.0940 H   0  0  0  0  0  0  0  0  0  0  0  0
   -3.5006    0.9484   -1.5012 H   0  0  0  0  0  0  0  0  0  0  0  0
    2.0304    1.7699    1.2261 H   0  0  0  0  0  0  0  0  0  0  0  0
   -5.0435   -0.0899    0.9339 H   0  0  0  0  0  0  0  0  0  0  0  0
   -4.9774   -0.8769   -0.6502 H   0  0  0  0  0  0  0  0  0  0  0  0
   -5.7467    0.7126   -0.4829 H   0  0  0  0  0  0  0  0  0  0  0  0
    4.5671    1.4171    0.2795 H   0  0  0  0  0  0  0  0  0  0  0  0
    4.4531   -0.9738   -1.1022 H   0  0  0  0  0  0  0  0  0  0  0  0
  1  4  1  0  0  0  0
  1  7  1  0  0  0  0
  2  5  1  0  0  0  0
  2 11  1  0  0  0  0
  3  7  2  0  0  0  0
  4  5  1  0  0  0  0
  4 12  1  0  0  0  0
  4 13  1  0  0  0  0
  5  8  2  0  0  0  0
  6  7  1  0  0  0  0
  6  9  1  0  0  0  0
  6 14  1  0  0  0  0
  6 15  1  0  0  0  0
  8 10  1  0  0  0  0
  8 16  1  0  0  0  0
  9 17  1  0  0  0  0
  9 18  1  0  0  0  0
  9 19  1  0  0  0  0
 10 11  2  0  0  0  0
 10 20  1  0  0  0  0
 11 21  1  0  0  0  0
M  END
> <PUBCHEM_COMPOUND_CID>
62143

> <PUBCHEM_CONFORMER_RMSD>
0.6

> <PUBCHEM_CONFORMER_DIVERSEORDER>
1
67
65
21
14
38
26
7
47
69
4
30
20
62
42
6
3
24
12
34
22
27
39
56
19
64
66
53
37
11
2
54
57
18
13
8
33
28
58
63
40
49
9
17
15
61
25
41
45
5
10
35
43
32
68
59
29
51
31
46
50
60
48
55
36
52
23
16
44

> <PUBCHEM_MMFF94_PARTIAL_CHARGES>
13
1 -0.37
10 -0.15
11 -0.01
16 0.15
2 -0.28
20 0.15
21 0.15
3 -0.57
4 0.41
5 -0.04
6 0.06
7 0.65
8 -0.15

> <PUBCHEM_EFFECTIVE_ROTOR_COUNT>
4

> <PUBCHEM_PHARMACOPHORE_FEATURES>
3
1 2 acceptor
1 9 hydrophobe
5 2 5 8 10 11 rings

> <PUBCHEM_HEAVY_ATOM_COUNT>
11

> <PUBCHEM_ATOM_DEF_STEREO_COUNT>
0

> <PUBCHEM_ATOM_UDEF_STEREO_COUNT>
0

> <PUBCHEM_BOND_DEF_STEREO_COUNT>
0

> <PUBCHEM_BOND_UDEF_STEREO_COUNT>
0

> <PUBCHEM_ISOTOPIC_ATOM_COUNT>
0

> <PUBCHEM_COMPONENT_COUNT>
1

> <PUBCHEM_CACTVS_TAUTO_COUNT>
1

> <PUBCHEM_CONFORMER_ID>
0000F2BF00000001

> <PUBCHEM_MMFF94_ENERGY>
4.7631

> <PUBCHEM_FEATURE_SELFOVERLAP>
15.223

> <PUBCHEM_SHAPE_FINGERPRINT>
11062470 55 15719392828238067693
11471102 20 18131069338058163656
12932764 1 16153417380901581149
14123238 8 10809347741223481361
14325111 11 18410292523217936954
14993402 34 15841551898525516553
17834072 33 17917424380474031373
17834076 25 17967814946645435237
18175812 5 18410856585430738094
18186145 218 18410012117540422489
190213 19 15985104123762841356
200 152 17489868215354993704
20201158 50 18342177752070590666
20279233 1 18410577292329218058
20528008 55 18411697694967851181
20645477 70 18131354059835335566
20719005 15 18407759240122417037
21119208 17 17704353268584506300
22485316 2 18060133254175109359
23048698 100 16559031605586686608
23402539 116 18261103106571214230
23402655 69 18131913758376934204
449060 50 18410575115007684741
522135 26 17632577136770210460

> <PUBCHEM_SHAPE_MULTIPOLES>
218.49
8.97
1.05
0.76
5.29
0
0
-0.65
-0.83
-0.17
0.04
-0.13
0
0.57

> <PUBCHEM_SHAPE_SELFOVERLAP>
425.655

> <PUBCHEM_SHAPE_VOLUME>
134

> <PUBCHEM_COORDINATE_TYPE>
2
5
10

$$$$
