62217
  -OEChem-11232109033D

 33 35  0     0  0  0  0  0  0999 V2000
    0.6494    0.7004   -0.4714 O   0  0  0  0  0  0  0  0  0  0  0  0
    1.0107   -0.6622    1.3846 O   0  0  0  0  0  0  0  0  0  0  0  0
    3.2579   -2.1782    1.0023 N   0  0  0  0  0  0  0  0  0  0  0  0
   -2.8666   -0.3620   -0.4937 C   0  0  0  0  0  0  0  0  0  0  0  0
   -3.4383    0.6215    0.3482 C   0  0  0  0  0  0  0  0  0  0  0  0
   -1.4883   -0.3214   -0.7597 C   0  0  0  0  0  0  0  0  0  0  0  0
   -0.6850    0.6746   -0.2037 C   0  0  0  0  0  0  0  0  0  0  0  0
   -2.6146    1.6166    0.8994 C   0  0  0  0  0  0  0  0  0  0  0  0
   -1.2471    1.6418    0.6243 C   0  0  0  0  0  0  0  0  0  0  0  0
   -3.6902   -1.3570   -1.0449 C   0  0  0  0  0  0  0  0  0  0  0  0
   -4.8167    0.5810    0.6142 C   0  0  0  0  0  0  0  0  0  0  0  0
    2.8710    0.0460    0.0718 C   0  0  0  0  0  0  0  0  0  0  0  0
   -5.0578   -1.3821   -0.7700 C   0  0  0  0  0  0  0  0  0  0  0  0
   -5.6200   -0.4150    0.0579 C   0  0  0  0  0  0  0  0  0  0  0  0
    3.7175   -1.0051    0.3633 C   0  0  0  0  0  0  0  0  0  0  0  0
    1.4309   -0.0291    0.4277 C   0  0  0  0  0  0  0  0  0  0  0  0
    3.3181    1.1945   -0.5530 C   0  0  0  0  0  0  0  0  0  0  0  0
    5.0649   -0.9046    0.0168 C   0  0  0  0  0  0  0  0  0  0  0  0
    4.6655    1.2950   -0.8996 C   0  0  0  0  0  0  0  0  0  0  0  0
    5.5388    0.2453   -0.6146 C   0  0  0  0  0  0  0  0  0  0  0  0
   -1.0338   -1.0704   -1.4058 H   0  0  0  0  0  0  0  0  0  0  0  0
   -3.0326    2.3826    1.5493 H   0  0  0  0  0  0  0  0  0  0  0  0
   -0.6268    2.4204    1.0599 H   0  0  0  0  0  0  0  0  0  0  0  0
   -3.2724   -2.1231   -1.6948 H   0  0  0  0  0  0  0  0  0  0  0  0
   -5.2776    1.3267    1.2586 H   0  0  0  0  0  0  0  0  0  0  0  0
   -5.6837   -2.1571   -1.2026 H   0  0  0  0  0  0  0  0  0  0  0  0
   -6.6847   -0.4350    0.2716 H   0  0  0  0  0  0  0  0  0  0  0  0
    2.6650    2.0337   -0.7731 H   0  0  0  0  0  0  0  0  0  0  0  0
    5.7567   -1.7148    0.2331 H   0  0  0  0  0  0  0  0  0  0  0  0
    5.0357    2.1917   -1.3880 H   0  0  0  0  0  0  0  0  0  0  0  0
    6.5881    0.3240   -0.8836 H   0  0  0  0  0  0  0  0  0  0  0  0
    2.2843   -2.2855    1.2506 H   0  0  0  0  0  0  0  0  0  0  0  0
    3.9066   -2.9295    1.1974 H   0  0  0  0  0  0  0  0  0  0  0  0
  1  7  1  0  0  0  0
  1 16  1  0  0  0  0
  2 16  2  0  0  0  0
  3 15  1  0  0  0  0
  3 32  1  0  0  0  0
  3 33  1  0  0  0  0
  4  5  1  0  0  0  0
  4  6  1  0  0  0  0
  4 10  2  0  0  0  0
  5  8  1  0  0  0  0
  5 11  2  0  0  0  0
  6  7  2  0  0  0  0
  6 21  1  0  0  0  0
  7  9  1  0  0  0  0
  8  9  2  0  0  0  0
  8 22  1  0  0  0  0
  9 23  1  0  0  0  0
 10 13  1  0  0  0  0
 10 24  1  0  0  0  0
 11 14  1  0  0  0  0
 11 25  1  0  0  0  0
 12 15  1  0  0  0  0
 12 16  1  0  0  0  0
 12 17  2  0  0  0  0
 13 14  2  0  0  0  0
 13 26  1  0  0  0  0
 14 27  1  0  0  0  0
 15 18  2  0  0  0  0
 17 19  1  0  0  0  0
 17 28  1  0  0  0  0
 18 20  1  0  0  0  0
 18 29  1  0  0  0  0
 19 20  2  0  0  0  0
 19 30  1  0  0  0  0
 20 31  1  0  0  0  0
M  END
> <PUBCHEM_COMPOUND_CID>
62217

> <PUBCHEM_CONFORMER_RMSD>
0.6

> <PUBCHEM_CONFORMER_DIVERSEORDER>
1
88
85
83
64
104
36
73
50
77
22
68
15
105
12
65
18
100
47
106
52
78
9
82
16
14
60
102
20
48
62
69
39
103
4
57
75
63
66
2
86
101
49
11
61
74
30
55
98
51
7
58
25
53
37
59
24
72
76
10
44
97
33
3
71
96
28
35
5
94
32
17
54
41
21
43
56
93
26
107
34
27
91
8
90
19
45
95
99
6
42
84
23
13
87
81
46
40
38
70
67
29
92
31
89
80
79

> <PUBCHEM_MMFF94_PARTIAL_CHARGES>
31
1 -0.23
10 -0.15
11 -0.15
12 0.09
13 -0.15
14 -0.15
15 0.1
16 0.63
17 -0.15
18 -0.15
19 -0.15
2 -0.57
20 -0.15
21 0.15
22 0.15
23 0.15
24 0.15
25 0.15
26 0.15
27 0.15
28 0.15
29 0.15
3 -0.9
30 0.15
31 0.15
32 0.4
33 0.4
6 -0.15
7 0.08
8 -0.15
9 -0.15

> <PUBCHEM_EFFECTIVE_ROTOR_COUNT>
3

> <PUBCHEM_PHARMACOPHORE_FEATURES>
6
1 2 acceptor
1 3 cation
1 3 donor
6 12 15 17 18 19 20 rings
6 4 5 10 11 13 14 rings
6 4 5 6 7 8 9 rings

> <PUBCHEM_HEAVY_ATOM_COUNT>
20

> <PUBCHEM_ATOM_DEF_STEREO_COUNT>
0

> <PUBCHEM_ATOM_UDEF_STEREO_COUNT>
0

> <PUBCHEM_BOND_DEF_STEREO_COUNT>
0

> <PUBCHEM_BOND_UDEF_STEREO_COUNT>
0

> <PUBCHEM_ISOTOPIC_ATOM_COUNT>
0

> <PUBCHEM_COMPONENT_COUNT>
1

> <PUBCHEM_CACTVS_TAUTO_COUNT>
2

> <PUBCHEM_CONFORMER_ID>
0000F30900000001

> <PUBCHEM_MMFF94_ENERGY>
81.1334

> <PUBCHEM_FEATURE_SELFOVERLAP>
30.473

> <PUBCHEM_SHAPE_FINGERPRINT>
10595046 47 18411702097299026956
10616163 171 18343582962196246686
10912923 1 18411703166582295192
11045515 52 18114177540794794597
11046707 91 18131630101952274601
11089746 13 8214137443845152590
11128504 68 18334295392060903548
11524674 6 15267344024436411749
117890 112 11891328759816766342
12107183 9 17690845557841870984
12236239 1 18410015433308117413
12788726 201 18201725011720823641
128620 24 17603867797236716942
13167823 11 18411700963216501854
13288520 33 18130788975720562917
13533116 47 18335700520502695834
13675066 3 13902187092833237033
13862211 1 17917425471691247375
14251764 18 18342742919260929769
14386348 63 15791736295098822345
14528608 73 18334017220088240476
14576447 43 18409164420314670282
15250474 111 18339349803827571443
15375358 24 15213017150296539505
17804303 29 17561079237538408393
17834072 33 18410012143357737972
17844677 252 18113339686926819885
17857418 61 18411414003519139898
1813 80 18188219718712472605
18222031 100 17560507500055616693
18681886 176 18202844375225400736
19377110 9 18410565181122603264
19422 9 18411698751355726256
19489759 90 16128659639689160291
200 152 18186519899674623393
20279233 1 15430039846393172680
20281475 54 18340198609713197682
20645477 70 17530959143019256970
21033648 29 16588012554504602717
21065198 48 18339082592489277400
21267235 1 18342465845496835551
22646028 1 18411135827140557644
22950370 63 18343021103374793707
2297311 6 17489597761312188061
23035841 295 18343023302677747547
23402539 116 18272368672386316301
23522609 53 18126596532972655985
23557571 272 17060071310533517385
23559900 14 18059284470022256625
23596394 208 16443338724675500866
2838139 119 11671518733911189523
300161 21 18411414012056346508
3004659 81 18410011018493050830
335352 9 18130786772903746997
34797466 226 17274831298111054412
351380 3 18343580759120279039
4214541 1 18271808990734403273
4325135 7 18408605868354973876
465052 167 17988646345242437087
474 4 18041848445042097300
5104073 3 17846216704471080579
542803 24 18408325483936063277
602551 16 17131825512560902246
7495541 125 17703788150036766568

> <PUBCHEM_SHAPE_MULTIPOLES>
394.87
13.49
1.64
1.03
1.74
0.1
-0.07
2.62
1.64
-0.12
-0.18
0.17
0.11
-1.81

> <PUBCHEM_SHAPE_SELFOVERLAP>
878.723

> <PUBCHEM_SHAPE_VOLUME>
208.5

> <PUBCHEM_COORDINATE_TYPE>
2
5
10

$$$$
