62220
  -OEChem-11232109103D

 23 22  0     0  0  0  0  0  0999 V2000
   -4.1318   -0.8620    0.2241 O   0  0  0  0  0  0  0  0  0  0  0  0
    0.0162    0.4492   -0.2859 C   0  0  0  0  0  0  0  0  0  0  0  0
   -1.3812   -0.1620   -0.1385 C   0  0  0  0  0  0  0  0  0  0  0  0
    1.0913   -0.6386   -0.3476 C   0  0  0  0  0  0  0  0  0  0  0  0
   -2.4698    0.8981    0.0047 C   0  0  0  0  0  0  0  0  0  0  0  0
    2.4652   -0.0419   -0.4468 C   0  0  0  0  0  0  0  0  0  0  0  0
   -3.8535    0.3322    0.2240 C   0  0  0  0  0  0  0  0  0  0  0  0
    3.4477   -0.2815    0.4336 C   0  0  0  0  0  0  0  0  0  0  0  0
    4.8160    0.3065    0.3323 C   0  0  0  0  0  0  0  0  0  0  0  0
    0.0522    1.0663   -1.1924 H   0  0  0  0  0  0  0  0  0  0  0  0
    0.2133    1.1146    0.5642 H   0  0  0  0  0  0  0  0  0  0  0  0
   -1.5994   -0.7964   -1.0067 H   0  0  0  0  0  0  0  0  0  0  0  0
   -1.4015   -0.8197    0.7398 H   0  0  0  0  0  0  0  0  0  0  0  0
    1.0131   -1.2863    0.5341 H   0  0  0  0  0  0  0  0  0  0  0  0
    0.9229   -1.2731   -1.2259 H   0  0  0  0  0  0  0  0  0  0  0  0
   -2.5090    1.5251   -0.8926 H   0  0  0  0  0  0  0  0  0  0  0  0
   -2.2500    1.5470    0.8598 H   0  0  0  0  0  0  0  0  0  0  0  0
    2.6574    0.6075   -1.2974 H   0  0  0  0  0  0  0  0  0  0  0  0
   -4.6431    1.0876    0.3794 H   0  0  0  0  0  0  0  0  0  0  0  0
    3.2619   -0.9362    1.2809 H   0  0  0  0  0  0  0  0  0  0  0  0
    5.5604   -0.4924    0.2604 H   0  0  0  0  0  0  0  0  0  0  0  0
    5.0335    0.8999    1.2257 H   0  0  0  0  0  0  0  0  0  0  0  0
    4.9258    0.9548   -0.5428 H   0  0  0  0  0  0  0  0  0  0  0  0
  1  7  2  0  0  0  0
  2  3  1  0  0  0  0
  2  4  1  0  0  0  0
  2 10  1  0  0  0  0
  2 11  1  0  0  0  0
  3  5  1  0  0  0  0
  3 12  1  0  0  0  0
  3 13  1  0  0  0  0
  4  6  1  0  0  0  0
  4 14  1  0  0  0  0
  4 15  1  0  0  0  0
  5  7  1  0  0  0  0
  5 16  1  0  0  0  0
  5 17  1  0  0  0  0
  6  8  2  3  0  0  0
  6 18  1  0  0  0  0
  7 19  1  0  0  0  0
  8  9  1  0  0  0  0
  8 20  1  0  0  0  0
  9 21  1  0  0  0  0
  9 22  1  0  0  0  0
  9 23  1  0  0  0  0
M  END
> <PUBCHEM_COMPOUND_CID>
62220

> <PUBCHEM_CONFORMER_RMSD>
0.6

> <PUBCHEM_CONFORMER_DIVERSEORDER>
1
49
35
25
9
43
7
42
44
45
18
2
50
6
52
21
27
24
32
16
48
37
30
11
46
36
8
34
40
19
33
26
3
31
17
23
14
41
4
51
5
39
13
12
47
22
38
10
20
29
15
28

> <PUBCHEM_MMFF94_PARTIAL_CHARGES>
10
1 -0.57
18 0.15
19 0.06
20 0.15
4 0.14
5 0.06
6 -0.29
7 0.45
8 -0.29
9 0.14

> <PUBCHEM_EFFECTIVE_ROTOR_COUNT>
5

> <PUBCHEM_PHARMACOPHORE_FEATURES>
3
1 1 acceptor
1 9 hydrophobe
5 2 3 4 5 6 hydrophobe

> <PUBCHEM_HEAVY_ATOM_COUNT>
9

> <PUBCHEM_ATOM_DEF_STEREO_COUNT>
0

> <PUBCHEM_ATOM_UDEF_STEREO_COUNT>
0

> <PUBCHEM_BOND_DEF_STEREO_COUNT>
0

> <PUBCHEM_BOND_UDEF_STEREO_COUNT>
1

> <PUBCHEM_ISOTOPIC_ATOM_COUNT>
0

> <PUBCHEM_COMPONENT_COUNT>
1

> <PUBCHEM_CACTVS_TAUTO_COUNT>
2

> <PUBCHEM_CONFORMER_ID>
0000F30C00000001

> <PUBCHEM_MMFF94_ENERGY>
-0.002

> <PUBCHEM_FEATURE_SELFOVERLAP>
15.223

> <PUBCHEM_SHAPE_FINGERPRINT>
11062470 55 18131350799807009572
12932764 1 14548444766032309549
14123238 8 18343020008057945436
14325111 11 18341333292733182671
177051 138 17676487207673321570
17834076 25 15051733096901080016
18342897 14 17632580435416052249
190213 19 18412546487658209749
20211469 26 15646771180318739293
20645477 70 11819265647025892944
20719005 15 18411699885432807650
20767249 13 14490469794533112808
20828058 21 18409452470849297150
20828058 44 18410857667968374211
21119208 17 9295288339496024584
21293036 1 11815893461984830606
22485316 2 17821723918794143115
23402539 116 17385716998200037151
449060 50 17775566450898957572

> <PUBCHEM_SHAPE_MULTIPOLES>
179.35
9.47
0.86
0.7
1.55
0.01
-0.01
0.17
1.83
-0.37
0
0.17
0
0.11

> <PUBCHEM_SHAPE_SELFOVERLAP>
321.292

> <PUBCHEM_SHAPE_VOLUME>
115.4

> <PUBCHEM_COORDINATE_TYPE>
2
5
10

$$$$
