62231
  -OEChem-11232109433D

 25 24  0     0  0  0  0  0  0999 V2000
   -3.3805    1.6886    0.2088 O   0  0  0  0  0  0  0  0  0  0  0  0
   -1.2709   -1.4219   -0.2719 C   0  0  0  0  0  0  0  0  0  0  0  0
   -1.6656   -0.0287    0.2332 C   0  0  0  0  0  0  0  0  0  0  0  0
    0.1200   -1.8574    0.2008 C   0  0  0  0  0  0  0  0  0  0  0  0
   -3.0404    0.3962   -0.2729 C   0  0  0  0  0  0  0  0  0  0  0  0
    1.2174   -0.9747   -0.3197 C   0  0  0  0  0  0  0  0  0  0  0  0
    2.0949   -0.3337    0.4663 C   0  0  0  0  0  0  0  0  0  0  0  0
    3.1935    0.5445   -0.0543 C   0  0  0  0  0  0  0  0  0  0  0  0
    2.7315    1.9870   -0.1902 C   0  0  0  0  0  0  0  0  0  0  0  0
   -1.3075   -1.4375   -1.3686 H   0  0  0  0  0  0  0  0  0  0  0  0
   -2.0071   -2.1551    0.0797 H   0  0  0  0  0  0  0  0  0  0  0  0
   -1.6605   -0.0097    1.3301 H   0  0  0  0  0  0  0  0  0  0  0  0
   -0.9312    0.7217   -0.0826 H   0  0  0  0  0  0  0  0  0  0  0  0
    0.1352   -1.8974    1.2968 H   0  0  0  0  0  0  0  0  0  0  0  0
    0.3070   -2.8783   -0.1533 H   0  0  0  0  0  0  0  0  0  0  0  0
   -3.8096   -0.3027    0.0701 H   0  0  0  0  0  0  0  0  0  0  0  0
   -3.0670    0.4196   -1.3673 H   0  0  0  0  0  0  0  0  0  0  0  0
    1.3000   -0.8776   -1.3995 H   0  0  0  0  0  0  0  0  0  0  0  0
    2.0131   -0.4247    1.5465 H   0  0  0  0  0  0  0  0  0  0  0  0
    3.5427    0.1816   -1.0284 H   0  0  0  0  0  0  0  0  0  0  0  0
    4.0505    0.4872    0.6262 H   0  0  0  0  0  0  0  0  0  0  0  0
    2.4020    2.3896    0.7737 H   0  0  0  0  0  0  0  0  0  0  0  0
    1.9003    2.0742   -0.8982 H   0  0  0  0  0  0  0  0  0  0  0  0
    3.5521    2.6131   -0.5549 H   0  0  0  0  0  0  0  0  0  0  0  0
   -2.6972    2.3062   -0.1031 H   0  0  0  0  0  0  0  0  0  0  0  0
  1  5  1  0  0  0  0
  1 25  1  0  0  0  0
  2  3  1  0  0  0  0
  2  4  1  0  0  0  0
  2 10  1  0  0  0  0
  2 11  1  0  0  0  0
  3  5  1  0  0  0  0
  3 12  1  0  0  0  0
  3 13  1  0  0  0  0
  4  6  1  0  0  0  0
  4 14  1  0  0  0  0
  4 15  1  0  0  0  0
  5 16  1  0  0  0  0
  5 17  1  0  0  0  0
  6  7  2  3  0  0  0
  6 18  1  0  0  0  0
  7  8  1  0  0  0  0
  7 19  1  0  0  0  0
  8  9  1  0  0  0  0
  8 20  1  0  0  0  0
  8 21  1  0  0  0  0
  9 22  1  0  0  0  0
  9 23  1  0  0  0  0
  9 24  1  0  0  0  0
M  END
> <PUBCHEM_COMPOUND_CID>
62231

> <PUBCHEM_CONFORMER_RMSD>
0.6

> <PUBCHEM_CONFORMER_DIVERSEORDER>
1
14
71
22
36
62
74
63
3
72
21
59
23
66
68
44
70
37
7
61
73
50
26
64
29
58
2
49
65
12
46
25
28
48
18
69
40
24
47
27
35
53
9
60
13
34
20
56
55
54
5
52
67
6
51
43
42
45
17
41
32
19
16
30
33
8
57
38
10
4
15
11
39
31

> <PUBCHEM_MMFF94_PARTIAL_CHARGES>
9
1 -0.68
18 0.15
19 0.15
25 0.4
4 0.14
5 0.28
6 -0.29
7 -0.29
8 0.14

> <PUBCHEM_EFFECTIVE_ROTOR_COUNT>
5

> <PUBCHEM_PHARMACOPHORE_FEATURES>
4
1 1 acceptor
1 1 donor
1 9 hydrophobe
4 2 3 4 6 hydrophobe

> <PUBCHEM_HEAVY_ATOM_COUNT>
9

> <PUBCHEM_ATOM_DEF_STEREO_COUNT>
0

> <PUBCHEM_ATOM_UDEF_STEREO_COUNT>
0

> <PUBCHEM_BOND_DEF_STEREO_COUNT>
0

> <PUBCHEM_BOND_UDEF_STEREO_COUNT>
1

> <PUBCHEM_ISOTOPIC_ATOM_COUNT>
0

> <PUBCHEM_COMPONENT_COUNT>
1

> <PUBCHEM_CACTVS_TAUTO_COUNT>
1

> <PUBCHEM_CONFORMER_ID>
0000F31700000001

> <PUBCHEM_MMFF94_ENERGY>
-0.1462

> <PUBCHEM_FEATURE_SELFOVERLAP>
20.297

> <PUBCHEM_SHAPE_FINGERPRINT>
10149128 111 18412545409547727689
10149128 76 18411982468147148780
12162725 195 18410848893197155718
13618510 140 18410577287992319036
14325111 11 18410855464507752499
14390081 3 18411699868163443103
15775835 57 18334577966491330124
170605 34 18409448055349006355
18342897 96 18342454893314634023
20281407 28 8862947181825969830
20304884 271 18340206400699502560
20653085 51 18412553123435780282
20671657 1 18410855417479526574
21524375 3 18409442596282062278
22485316 2 9223230741147421967
22959321 54 18193550292738658005
23500284 5 8718556029358667727
8199 26 18264774444442372428

> <PUBCHEM_SHAPE_MULTIPOLES>
179.35
5.81
2.08
0.68
0.82
0.32
0
4.03
0.07
0.09
0.02
-0.04
-0.04
-0.26

> <PUBCHEM_SHAPE_SELFOVERLAP>
317.887

> <PUBCHEM_SHAPE_VOLUME>
117

> <PUBCHEM_COORDINATE_TYPE>
2
5
10

$$$$
