62237
  -OEChem-11232109123D

 17 16  0     1  0  0  0  0  0999 V2000
   -0.1035   -2.2800    0.2017 S   0  0  0  0  0  0  0  0  0  0  0  0
   -1.1969    0.2488   -1.2887 O   0  0  0  0  0  0  0  0  0  0  0  0
    0.2757   -0.5160    0.4686 C   0  0  1  0  0  0  0  0  0  0  0  0
    1.6098   -0.1577   -0.1934 C   0  0  0  0  0  0  0  0  0  0  0  0
   -0.8887    0.2851   -0.0971 C   0  0  0  0  0  0  0  0  0  0  0  0
    1.9832    1.3039    0.0275 C   0  0  0  0  0  0  0  0  0  0  0  0
   -1.6796    1.1161    0.8814 C   0  0  0  0  0  0  0  0  0  0  0  0
    0.3380   -0.3486    1.5492 H   0  0  0  0  0  0  0  0  0  0  0  0
    1.5701   -0.3418   -1.2746 H   0  0  0  0  0  0  0  0  0  0  0  0
    2.4122   -0.7846    0.2150 H   0  0  0  0  0  0  0  0  0  0  0  0
    2.9678    1.5088   -0.4050 H   0  0  0  0  0  0  0  0  0  0  0  0
    1.2645    1.9789   -0.4469 H   0  0  0  0  0  0  0  0  0  0  0  0
    2.0270    1.5400    1.0956 H   0  0  0  0  0  0  0  0  0  0  0  0
   -1.0176    1.8358    1.3693 H   0  0  0  0  0  0  0  0  0  0  0  0
   -2.1431    0.4634    1.6252 H   0  0  0  0  0  0  0  0  0  0  0  0
   -2.4638    1.6633    0.3509 H   0  0  0  0  0  0  0  0  0  0  0  0
    0.9643   -2.7678    0.8503 H   0  0  0  0  0  0  0  0  0  0  0  0
  1  3  1  0  0  0  0
  1 17  1  0  0  0  0
  2  5  2  0  0  0  0
  3  4  1  0  0  0  0
  3  5  1  0  0  0  0
  3  8  1  0  0  0  0
  4  6  1  0  0  0  0
  4  9  1  0  0  0  0
  4 10  1  0  0  0  0
  5  7  1  0  0  0  0
  6 11  1  0  0  0  0
  6 12  1  0  0  0  0
  6 13  1  0  0  0  0
  7 14  1  0  0  0  0
  7 15  1  0  0  0  0
  7 16  1  0  0  0  0
M  END
> <PUBCHEM_COMPOUND_CID>
62237

> <PUBCHEM_CONFORMER_RMSD>
0.4

> <PUBCHEM_CONFORMER_DIVERSEORDER>
2
13
11
14
12
5
1
10
4
15
18
3
16
7
19
8
9
6
17

> <PUBCHEM_MMFF94_PARTIAL_CHARGES>
6
1 -0.41
17 0.18
2 -0.57
3 0.29
5 0.45
7 0.06

> <PUBCHEM_EFFECTIVE_ROTOR_COUNT>
2

> <PUBCHEM_PHARMACOPHORE_FEATURES>
2
1 2 acceptor
1 6 hydrophobe

> <PUBCHEM_HEAVY_ATOM_COUNT>
7

> <PUBCHEM_ATOM_DEF_STEREO_COUNT>
0

> <PUBCHEM_ATOM_UDEF_STEREO_COUNT>
1

> <PUBCHEM_BOND_DEF_STEREO_COUNT>
0

> <PUBCHEM_BOND_UDEF_STEREO_COUNT>
0

> <PUBCHEM_ISOTOPIC_ATOM_COUNT>
0

> <PUBCHEM_COMPONENT_COUNT>
1

> <PUBCHEM_CACTVS_TAUTO_COUNT>
5

> <PUBCHEM_CONFORMER_ID>
0000F31D00000002

> <PUBCHEM_MMFF94_ENERGY>
6.7674

> <PUBCHEM_FEATURE_SELFOVERLAP>
10.148

> <PUBCHEM_SHAPE_FINGERPRINT>
137420 1 11156376313978071066
18185500 45 17911504407473846323
20096714 4 18342182115757447912
21040471 1 18410301328027559304
23552449 1 17836082643173628832
24536 1 18271241737460874896
29004967 10 17470455027644171163
5943 1 11459007307498713967

> <PUBCHEM_SHAPE_MULTIPOLES>
142.04
2.25
1.99
0.94
0.9
1.29
0.17
-1.21
-0.08
-0.3
-0.32
-0.35
-0.14
-0.11

> <PUBCHEM_SHAPE_SELFOVERLAP>
246.483

> <PUBCHEM_SHAPE_VOLUME>
96

> <PUBCHEM_COORDINATE_TYPE>
2
5
10

$$$$
