62241
  -OEChem-11232109433D

 45 47  0     1  0  0  0  0  0999 V2000
    2.9291    0.1899    0.6573 O   0  0  0  0  0  0  0  0  0  0  0  0
   -1.1090    0.6385   -0.1374 C   0  0  1  0  0  0  0  0  0  0  0  0
   -0.9923   -0.6964    0.6651 C   0  0  2  0  0  0  0  0  0  0  0  0
    0.2897   -1.4093    0.1085 C   0  0  0  0  0  0  0  0  0  0  0  0
    0.9828   -0.2874   -0.7547 C   0  0  1  0  0  0  0  0  0  0  0  0
   -0.2443    0.3800   -1.3848 C   0  0  0  0  0  0  0  0  0  0  0  0
   -2.6015    0.7952   -0.4969 C   0  0  1  0  0  0  0  0  0  0  0  0
   -0.4691    1.8196    0.6281 C   0  0  0  0  0  0  0  0  0  0  0  0
    1.8130    0.7977    0.0002 C   0  0  1  0  0  0  0  0  0  0  0  0
   -2.3553   -1.3897    0.5158 C   0  0  0  0  0  0  0  0  0  0  0  0
   -3.0849   -0.6571   -0.6045 C   0  0  0  0  0  0  0  0  0  0  0  0
    0.9768    1.5360    1.0621 C   0  0  0  0  0  0  0  0  0  0  0  0
   -0.0145   -2.6215   -0.8088 C   0  0  0  0  0  0  0  0  0  0  0  0
    1.1399   -1.9676    1.2612 C   0  0  0  0  0  0  0  0  0  0  0  0
   -3.4350    1.5650    0.5296 C   0  0  0  0  0  0  0  0  0  0  0  0
    2.4280    1.8179   -0.9760 C   0  0  0  0  0  0  0  0  0  0  0  0
    3.7466   -0.5108   -0.2647 C   0  0  0  0  0  0  0  0  0  0  0  0
   -0.8598   -0.4837    1.7339 H   0  0  0  0  0  0  0  0  0  0  0  0
    1.5657   -0.7325   -1.5675 H   0  0  0  0  0  0  0  0  0  0  0  0
   -0.0169    1.2992   -1.9333 H   0  0  0  0  0  0  0  0  0  0  0  0
   -0.7320   -0.2828   -2.1064 H   0  0  0  0  0  0  0  0  0  0  0  0
   -2.7200    1.2982   -1.4643 H   0  0  0  0  0  0  0  0  0  0  0  0
   -1.0418    2.0602    1.5308 H   0  0  0  0  0  0  0  0  0  0  0  0
   -0.4903    2.7166   -0.0036 H   0  0  0  0  0  0  0  0  0  0  0  0
   -2.9200   -1.2561    1.4478 H   0  0  0  0  0  0  0  0  0  0  0  0
   -2.3106   -2.4671    0.3473 H   0  0  0  0  0  0  0  0  0  0  0  0
   -2.8037   -1.0819   -1.5745 H   0  0  0  0  0  0  0  0  0  0  0  0
   -4.1716   -0.7538   -0.5125 H   0  0  0  0  0  0  0  0  0  0  0  0
    1.4647    2.4766    1.3497 H   0  0  0  0  0  0  0  0  0  0  0  0
    0.9591    0.9535    1.9908 H   0  0  0  0  0  0  0  0  0  0  0  0
   -0.7122   -2.3838   -1.6158 H   0  0  0  0  0  0  0  0  0  0  0  0
    0.9066   -2.9912   -1.2752 H   0  0  0  0  0  0  0  0  0  0  0  0
   -0.4377   -3.4582   -0.2420 H   0  0  0  0  0  0  0  0  0  0  0  0
    0.5799   -2.7394    1.8040 H   0  0  0  0  0  0  0  0  0  0  0  0
    2.0587   -2.4388    0.9004 H   0  0  0  0  0  0  0  0  0  0  0  0
    1.4047   -1.2128    2.0044 H   0  0  0  0  0  0  0  0  0  0  0  0
   -3.3281    1.1556    1.5392 H   0  0  0  0  0  0  0  0  0  0  0  0
   -3.1427    2.6197    0.5558 H   0  0  0  0  0  0  0  0  0  0  0  0
   -4.4975    1.5308    0.2651 H   0  0  0  0  0  0  0  0  0  0  0  0
    3.2850    2.3359   -0.5288 H   0  0  0  0  0  0  0  0  0  0  0  0
    2.7664    1.3568   -1.9103 H   0  0  0  0  0  0  0  0  0  0  0  0
    1.7020    2.5862   -1.2637 H   0  0  0  0  0  0  0  0  0  0  0  0
    4.2132    0.1284   -1.0175 H   0  0  0  0  0  0  0  0  0  0  0  0
    3.2660   -1.3763   -0.7232 H   0  0  0  0  0  0  0  0  0  0  0  0
    4.5785   -0.9218    0.3191 H   0  0  0  0  0  0  0  0  0  0  0  0
  1  9  1  0  0  0  0
  1 17  1  0  0  0  0
  2  3  1  0  0  0  0
  2  6  1  0  0  0  0
  2  7  1  0  0  0  0
  2  8  1  0  0  0  0
  3  4  1  0  0  0  0
  3 10  1  0  0  0  0
  3 18  1  0  0  0  0
  4  5  1  0  0  0  0
  4 13  1  0  0  0  0
  4 14  1  0  0  0  0
  5  6  1  0  0  0  0
  5  9  1  0  0  0  0
  5 19  1  0  0  0  0
  6 20  1  0  0  0  0
  6 21  1  0  0  0  0
  7 11  1  0  0  0  0
  7 15  1  0  0  0  0
  7 22  1  0  0  0  0
  8 12  1  0  0  0  0
  8 23  1  0  0  0  0
  8 24  1  0  0  0  0
  9 12  1  0  0  0  0
  9 16  1  0  0  0  0
 10 11  1  0  0  0  0
 10 25  1  0  0  0  0
 10 26  1  0  0  0  0
 11 27  1  0  0  0  0
 11 28  1  0  0  0  0
 12 29  1  0  0  0  0
 12 30  1  0  0  0  0
 13 31  1  0  0  0  0
 13 32  1  0  0  0  0
 13 33  1  0  0  0  0
 14 34  1  0  0  0  0
 14 35  1  0  0  0  0
 14 36  1  0  0  0  0
 15 37  1  0  0  0  0
 15 38  1  0  0  0  0
 15 39  1  0  0  0  0
 16 40  1  0  0  0  0
 16 41  1  0  0  0  0
 16 42  1  0  0  0  0
 17 43  1  0  0  0  0
 17 44  1  0  0  0  0
 17 45  1  0  0  0  0
M  END
> <PUBCHEM_COMPOUND_CID>
62241

> <PUBCHEM_CONFORMER_RMSD>
0.6

> <PUBCHEM_CONFORMER_DIVERSEORDER>
2
3
1

> <PUBCHEM_MMFF94_PARTIAL_CHARGES>
3
1 -0.56
17 0.28
9 0.28

> <PUBCHEM_EFFECTIVE_ROTOR_COUNT>
2.6

> <PUBCHEM_PHARMACOPHORE_FEATURES>
4
1 1 acceptor
3 4 13 14 hydrophobe
5 2 3 7 10 11 rings
8 2 3 4 5 6 8 9 12 rings

> <PUBCHEM_HEAVY_ATOM_COUNT>
17

> <PUBCHEM_ATOM_DEF_STEREO_COUNT>
4

> <PUBCHEM_ATOM_UDEF_STEREO_COUNT>
1

> <PUBCHEM_BOND_DEF_STEREO_COUNT>
0

> <PUBCHEM_BOND_UDEF_STEREO_COUNT>
0

> <PUBCHEM_ISOTOPIC_ATOM_COUNT>
0

> <PUBCHEM_COMPONENT_COUNT>
1

> <PUBCHEM_CACTVS_TAUTO_COUNT>
1

> <PUBCHEM_CONFORMER_ID>
0000F32100000002

> <PUBCHEM_MMFF94_ENERGY>
92.0876

> <PUBCHEM_FEATURE_SELFOVERLAP>
20.356

> <PUBCHEM_SHAPE_FINGERPRINT>
10062212 137 18340759360538095695
10863032 1 18262242238913710076
10948715 1 18410857637856143305
10967382 1 18196092148936949747
10980938 120 18269562641677192121
11132069 177 18411694361788548928
12382932 28 18339081488935669217
12423570 1 8356890297942815452
12491281 212 18114754818542297717
12808571 1 18334577979196799540
13024252 1 12613022907742569076
13140716 1 18409451400986183425
13380535 76 18410010997023527983
13464514 151 18197500619311794965
13571099 52 18131347496977373401
144361 1 18259699003909428187
14817 1 18050575345560482918
15490181 7 18196074767299319955
15775835 57 18335140877541970001
16945 1 17968369065803191493
18186145 218 18408042913885390004
18511873 20 18409446990486896934
193761 8 17621322329568902432
20510252 161 18194692681214958129
20645476 183 17824279287202271582
21501502 16 18408888472702510701
22344851 262 17676777487106129293
22344851 341 18261679172901486355
2334 1 18266180706612585929
23402539 116 18059847351387673572
23419403 2 15531022610671631077
23463225 33 18334573525447491384
23559900 14 18272370880827733208
241688 4 16826999859497677947
25 1 18339643322203088917
2748010 2 18339358681566462213
3286 77 18201146767119854813
5084963 1 18187640344751272196
528886 8 18272646809978090115
53655031 270 18339359639496968392
53812653 166 18412544288819687489
7364860 26 18055917584855254559
81228 2 17688020229649545619

> <PUBCHEM_SHAPE_MULTIPOLES>
343.98
4.72
2.36
1.16
0.03
0.65
0.03
-0.99
0.14
0.02
-0.17
0.16
0.03
-0.34

> <PUBCHEM_SHAPE_SELFOVERLAP>
728.889

> <PUBCHEM_SHAPE_VOLUME>
197.7

> <PUBCHEM_COORDINATE_TYPE>
2
5
10

$$$$
