62328
  -OEChem-11232109143D

 37 37  0     1  0  0  0  0  0999 V2000
    1.2446    0.2802   -0.0251 O   0  0  0  0  0  0  0  0  0  0  0  0
    3.3107   -0.7442    0.0484 O   0  0  0  0  0  0  0  0  0  0  0  0
   -0.9065   -0.7818    0.0692 C   0  0  2  0  0  0  0  0  0  0  0  0
    0.6057   -0.9931    0.0798 C   0  0  0  0  0  0  0  0  0  0  0  0
   -1.3674   -0.1464   -1.2464 C   0  0  0  0  0  0  0  0  0  0  0  0
   -1.3445    0.0854    1.2602 C   0  0  0  0  0  0  0  0  0  0  0  0
   -2.8904    0.0152   -1.2799 C   0  0  0  0  0  0  0  0  0  0  0  0
   -3.4741    0.5329    0.0108 C   0  0  0  0  0  0  0  0  0  0  0  0
   -2.7596    0.5728    1.1485 C   0  0  0  0  0  0  0  0  0  0  0  0
    1.0449   -1.8553   -1.1035 C   0  0  0  0  0  0  0  0  0  0  0  0
    1.0518   -1.6235    1.3976 C   0  0  0  0  0  0  0  0  0  0  0  0
   -4.8988    0.9986   -0.0478 C   0  0  0  0  0  0  0  0  0  0  0  0
    2.6117    0.2568   -0.0289 C   0  0  0  0  0  0  0  0  0  0  0  0
    3.1271    1.6721   -0.1454 C   0  0  0  0  0  0  0  0  0  0  0  0
    4.6447    1.7304   -0.1374 C   0  0  0  0  0  0  0  0  0  0  0  0
   -1.4032   -1.7594    0.1602 H   0  0  0  0  0  0  0  0  0  0  0  0
   -1.0792   -0.7479   -2.1147 H   0  0  0  0  0  0  0  0  0  0  0  0
   -0.9030    0.8401   -1.3751 H   0  0  0  0  0  0  0  0  0  0  0  0
   -0.7015    0.9655    1.3790 H   0  0  0  0  0  0  0  0  0  0  0  0
   -1.2668   -0.4967    2.1861 H   0  0  0  0  0  0  0  0  0  0  0  0
   -3.3534   -0.9540   -1.5041 H   0  0  0  0  0  0  0  0  0  0  0  0
   -3.1480    0.6925   -2.1029 H   0  0  0  0  0  0  0  0  0  0  0  0
   -3.2078    0.9716    2.0548 H   0  0  0  0  0  0  0  0  0  0  0  0
    2.0121   -2.3456   -0.9567 H   0  0  0  0  0  0  0  0  0  0  0  0
    0.3349   -2.6732   -1.2755 H   0  0  0  0  0  0  0  0  0  0  0  0
    1.1300   -1.2721   -2.0274 H   0  0  0  0  0  0  0  0  0  0  0  0
    1.1009   -0.8879    2.2089 H   0  0  0  0  0  0  0  0  0  0  0  0
    2.0337   -2.1036    1.3536 H   0  0  0  0  0  0  0  0  0  0  0  0
    0.3606   -2.4196    1.7002 H   0  0  0  0  0  0  0  0  0  0  0  0
   -4.9986    1.8285   -0.7549 H   0  0  0  0  0  0  0  0  0  0  0  0
   -5.2609    1.3447    0.9260 H   0  0  0  0  0  0  0  0  0  0  0  0
   -5.5509    0.1823   -0.3748 H   0  0  0  0  0  0  0  0  0  0  0  0
    2.7519    2.1011   -1.0804 H   0  0  0  0  0  0  0  0  0  0  0  0
    2.7380    2.2526    0.6978 H   0  0  0  0  0  0  0  0  0  0  0  0
    5.0642    1.1620   -0.9742 H   0  0  0  0  0  0  0  0  0  0  0  0
    4.9869    2.7664   -0.2214 H   0  0  0  0  0  0  0  0  0  0  0  0
    5.0493    1.3098    0.7891 H   0  0  0  0  0  0  0  0  0  0  0  0
  1  4  1  0  0  0  0
  1 13  1  0  0  0  0
  2 13  2  0  0  0  0
  3  4  1  0  0  0  0
  3  5  1  0  0  0  0
  3  6  1  0  0  0  0
  3 16  1  0  0  0  0
  4 10  1  0  0  0  0
  4 11  1  0  0  0  0
  5  7  1  0  0  0  0
  5 17  1  0  0  0  0
  5 18  1  0  0  0  0
  6  9  1  0  0  0  0
  6 19  1  0  0  0  0
  6 20  1  0  0  0  0
  7  8  1  0  0  0  0
  7 21  1  0  0  0  0
  7 22  1  0  0  0  0
  8  9  2  0  0  0  0
  8 12  1  0  0  0  0
  9 23  1  0  0  0  0
 10 24  1  0  0  0  0
 10 25  1  0  0  0  0
 10 26  1  0  0  0  0
 11 27  1  0  0  0  0
 11 28  1  0  0  0  0
 11 29  1  0  0  0  0
 12 30  1  0  0  0  0
 12 31  1  0  0  0  0
 12 32  1  0  0  0  0
 13 14  1  0  0  0  0
 14 15  1  0  0  0  0
 14 33  1  0  0  0  0
 14 34  1  0  0  0  0
 15 35  1  0  0  0  0
 15 36  1  0  0  0  0
 15 37  1  0  0  0  0
M  END
> <PUBCHEM_COMPOUND_CID>
62328

> <PUBCHEM_CONFORMER_RMSD>
0.6

> <PUBCHEM_CONFORMER_DIVERSEORDER>
2
41
30
34
13
42
32
36
5
18
33
38
21
22
37
20
29
10
40
39
26
8
3
43
31
25
35
14
28
17
24
4
9
16
11
19
23
27
15
12
6
7
1

> <PUBCHEM_MMFF94_PARTIAL_CHARGES>
11
1 -0.43
12 0.14
13 0.66
14 0.06
2 -0.57
23 0.15
4 0.28
6 0.14
7 0.14
8 -0.28
9 -0.29

> <PUBCHEM_EFFECTIVE_ROTOR_COUNT>
4.8

> <PUBCHEM_PHARMACOPHORE_FEATURES>
4
1 15 hydrophobe
1 2 acceptor
3 4 10 11 hydrophobe
6 3 5 6 7 8 9 rings

> <PUBCHEM_HEAVY_ATOM_COUNT>
15

> <PUBCHEM_ATOM_DEF_STEREO_COUNT>
0

> <PUBCHEM_ATOM_UDEF_STEREO_COUNT>
1

> <PUBCHEM_BOND_DEF_STEREO_COUNT>
0

> <PUBCHEM_BOND_UDEF_STEREO_COUNT>
0

> <PUBCHEM_ISOTOPIC_ATOM_COUNT>
0

> <PUBCHEM_COMPONENT_COUNT>
1

> <PUBCHEM_CACTVS_TAUTO_COUNT>
1

> <PUBCHEM_CONFORMER_ID>
0000F37800000002

> <PUBCHEM_MMFF94_ENERGY>
27.9655

> <PUBCHEM_FEATURE_SELFOVERLAP>
20.297

> <PUBCHEM_SHAPE_FINGERPRINT>
10465860 71 15482672398409645704
11132069 177 16732985336259724799
11543360 7 16200153252633655000
12119455 92 18260823821769322616
12186901 62 16702023106138695573
122479 349 18189901001294092800
12251169 10 14923942375095256364
12616999 72 17846774083968131831
12633257 1 16008751341848470021
12892183 10 15068886577938317532
13214271 11 18261114110224711525
13581323 91 14851607669857041731
13705890 14 12463570677599075416
14115302 16 17131827625447538694
14993402 34 17275385400231061081
15219456 202 17168417160680324499
15342168 16 18261398909058171532
15775835 57 18411980295073259580
16945 1 18335416816733428842
170605 34 18410858741536105411
1813 80 17697604290727025406
18186145 218 18408887343363319942
19049666 15 16807277004512379511
19786989 88 18339071601905415439
20112054 13 18113901589039887868
20281475 54 9439398042819528665
204376 136 18113900498007275514
20645476 183 17632290186195429647
20871999 31 16988271092953498149
21499 59 18343022220018876486
21524375 3 18338516447306794200
21618674 25 17749106673706923145
22079108 93 18335144240981300625
22094290 60 15123518007739370457
2255824 54 18057609758930963823
22713019 99 12175621776435007437
22854114 59 17748827423254356517
22926399 37 18343585148724633009
231179 274 18333730204276670252
23382010 3 17274255175212815858
23402539 116 17775562074622961396
23402655 69 18060703874845409513
23500284 214 18186802529960555048
23557571 272 16950865634325243211
23598291 2 17058390084202806290
25 1 18411135861711337992
27216 239 17751081520701751256
4047638 21 18409451375384749078
42 15 11097856281148474325
474 4 18410295838954132752
4990 188 13901898999792029429
57096353 35 17418083317792210293
633830 44 18408323276518084606
77492 1 17988918934016110403
8030462 33 16845003516589338551
81539 233 18408888421125992974
90316 7 13623518044074627367
9981440 41 17411034542326204296

> <PUBCHEM_SHAPE_MULTIPOLES>
296.95
7.96
1.69
1.25
0.2
0.14
0.06
-5.5
-0.48
-1.64
-0.03
0.61
0.32
-0.29

> <PUBCHEM_SHAPE_SELFOVERLAP>
591.995

> <PUBCHEM_SHAPE_VOLUME>
174.9

> <PUBCHEM_COORDINATE_TYPE>
2
5
10

$$$$
