62332
  -OEChem-11232108573D

 32 33  0     0  0  0  0  0  0999 V2000
   -0.0055    1.0337   -0.3883 O   0  0  0  0  0  0  0  0  0  0  0  0
   -4.0350    1.4730    0.1998 O   0  0  0  0  0  0  0  0  0  0  0  0
   -1.4981    2.2812    0.8426 O   0  0  0  0  0  0  0  0  0  0  0  0
    2.2138    1.7010   -1.0812 C   0  0  0  0  0  0  0  0  0  0  0  0
    2.8853    0.4961   -0.4684 C   0  0  0  0  0  0  0  0  0  0  0  0
    0.9467    2.1013   -0.3334 C   0  0  0  0  0  0  0  0  0  0  0  0
    3.8380    0.6793    0.5216 C   0  0  0  0  0  0  0  0  0  0  0  0
    2.5371   -0.7721   -0.9062 C   0  0  0  0  0  0  0  0  0  0  0  0
   -2.0792    0.0864    0.1149 C   0  0  0  0  0  0  0  0  0  0  0  0
   -1.2016    1.2417    0.2411 C   0  0  0  0  0  0  0  0  0  0  0  0
    4.4586   -0.4341    1.0881 C   0  0  0  0  0  0  0  0  0  0  0  0
    3.1577   -1.8855   -0.3396 C   0  0  0  0  0  0  0  0  0  0  0  0
   -3.4657    0.2388    0.0982 C   0  0  0  0  0  0  0  0  0  0  0  0
    4.1184   -1.7164    0.6576 C   0  0  0  0  0  0  0  0  0  0  0  0
   -1.5162   -1.1856    0.0111 C   0  0  0  0  0  0  0  0  0  0  0  0
   -4.2889   -0.8808   -0.0225 C   0  0  0  0  0  0  0  0  0  0  0  0
   -2.3396   -2.3052   -0.1094 C   0  0  0  0  0  0  0  0  0  0  0  0
   -3.7259   -2.1528   -0.1262 C   0  0  0  0  0  0  0  0  0  0  0  0
    1.9693    1.4763   -2.1274 H   0  0  0  0  0  0  0  0  0  0  0  0
    2.9141    2.5448   -1.1037 H   0  0  0  0  0  0  0  0  0  0  0  0
    0.5132    2.9911   -0.8042 H   0  0  0  0  0  0  0  0  0  0  0  0
    1.1746    2.3272    0.7152 H   0  0  0  0  0  0  0  0  0  0  0  0
    4.1078    1.6739    0.8648 H   0  0  0  0  0  0  0  0  0  0  0  0
    1.7910   -0.9155   -1.6825 H   0  0  0  0  0  0  0  0  0  0  0  0
    5.2061   -0.3025    1.8650 H   0  0  0  0  0  0  0  0  0  0  0  0
    2.8926   -2.8841   -0.6746 H   0  0  0  0  0  0  0  0  0  0  0  0
    4.6013   -2.5833    1.0989 H   0  0  0  0  0  0  0  0  0  0  0  0
   -0.4414   -1.3408    0.0376 H   0  0  0  0  0  0  0  0  0  0  0  0
   -5.3706   -0.7771   -0.0365 H   0  0  0  0  0  0  0  0  0  0  0  0
   -1.9015   -3.2960   -0.1863 H   0  0  0  0  0  0  0  0  0  0  0  0
   -4.3668   -3.0247   -0.2190 H   0  0  0  0  0  0  0  0  0  0  0  0
   -5.0027    1.3799    0.1699 H   0  0  0  0  0  0  0  0  0  0  0  0
  1  6  1  0  0  0  0
  1 10  1  0  0  0  0
  2 13  1  0  0  0  0
  2 32  1  0  0  0  0
  3 10  2  0  0  0  0
  4  5  1  0  0  0  0
  4  6  1  0  0  0  0
  4 19  1  0  0  0  0
  4 20  1  0  0  0  0
  5  7  2  0  0  0  0
  5  8  1  0  0  0  0
  6 21  1  0  0  0  0
  6 22  1  0  0  0  0
  7 11  1  0  0  0  0
  7 23  1  0  0  0  0
  8 12  2  0  0  0  0
  8 24  1  0  0  0  0
  9 10  1  0  0  0  0
  9 13  1  0  0  0  0
  9 15  2  0  0  0  0
 11 14  2  0  0  0  0
 11 25  1  0  0  0  0
 12 14  1  0  0  0  0
 12 26  1  0  0  0  0
 13 16  2  0  0  0  0
 14 27  1  0  0  0  0
 15 17  1  0  0  0  0
 15 28  1  0  0  0  0
 16 18  1  0  0  0  0
 16 29  1  0  0  0  0
 17 18  2  0  0  0  0
 17 30  1  0  0  0  0
 18 31  1  0  0  0  0
M  END
> <PUBCHEM_COMPOUND_CID>
62332

> <PUBCHEM_CONFORMER_RMSD>
0.6

> <PUBCHEM_CONFORMER_DIVERSEORDER>
1
179
162
52
125
124
65
110
212
155
127
129
131
134
37
175
18
170
192
25
5
75
108
7
71
216
27
136
30
187
20
153
77
190
83
141
16
144
138
126
145
225
205
26
39
50
15
21
72
120
24
13
163
171
55
88
169
137
46
89
220
132
62
184
154
116
133
91
174
188
109
159
11
59
158
113
135
35
19
41
165
104
68
185
33
94
207
6
2
96
58
92
43
23
230
223
95
211
48
106
164
226
197
176
22
60
82
34
102
56
180
107
146
189
93
73
53
40
66
142
70
67
140
31
118
229
224
150
204
111
44
152
98
194
10
161
215
222
199
80
51
9
84
218
69
47
101
45
14
105
54
203
221
90
186
149
139
214
172
3
209
193
78
49
121
117
148
4
208
103
12
151
217
36
97
227
181
115
87
122
128
198
156
81
74
8
143
86
32
112
160
38
85
167
195
210
200
123
196
191
166
147
183
100
130
29
99
63
79
206
201
42
76
173
57
119
17
182
219
213
64
177
28
114
228
157
178
61
202
168

> <PUBCHEM_MMFF94_PARTIAL_CHARGES>
28
1 -0.43
10 0.63
11 -0.15
12 -0.15
13 0.08
14 -0.15
15 -0.15
16 -0.15
17 -0.15
18 -0.15
2 -0.53
23 0.15
24 0.15
25 0.15
26 0.15
27 0.15
28 0.15
29 0.15
3 -0.57
30 0.15
31 0.15
32 0.45
4 0.14
5 -0.14
6 0.28
7 -0.15
8 -0.15
9 0.09

> <PUBCHEM_EFFECTIVE_ROTOR_COUNT>
5

> <PUBCHEM_PHARMACOPHORE_FEATURES>
4
1 2 donor
1 3 acceptor
6 5 7 8 11 12 14 rings
6 9 13 15 16 17 18 rings

> <PUBCHEM_HEAVY_ATOM_COUNT>
18

> <PUBCHEM_ATOM_DEF_STEREO_COUNT>
0

> <PUBCHEM_ATOM_UDEF_STEREO_COUNT>
0

> <PUBCHEM_BOND_DEF_STEREO_COUNT>
0

> <PUBCHEM_BOND_UDEF_STEREO_COUNT>
0

> <PUBCHEM_ISOTOPIC_ATOM_COUNT>
0

> <PUBCHEM_COMPONENT_COUNT>
1

> <PUBCHEM_CACTVS_TAUTO_COUNT>
4

> <PUBCHEM_CONFORMER_ID>
0000F37C00000001

> <PUBCHEM_MMFF94_ENERGY>
47.9165

> <PUBCHEM_FEATURE_SELFOVERLAP>
20.297

> <PUBCHEM_SHAPE_FINGERPRINT>
10062212 137 18412261757529104135
10366900 7 17632571652350350160
10616163 171 18339650065043410934
12410352 35 18261384533960679306
12553582 1 18339659921866449260
12596599 1 18270976647673914778
14178342 30 18340204068996465120
15196674 1 18410575089100717878
15352361 1 18409445890822580714
15442244 35 18409171004030127757
17492 89 18410015459163012162
17834072 14 18342735217245137125
1813 80 17385445422817151372
18186145 218 15502376754875756872
19141452 34 18409448046964702645
20281475 54 18335704965688391036
20291156 8 18407759231411234602
20442098 301 18343303678000418878
20626108 58 18262225737665137856
20645477 70 18042122214208597086
20715895 44 18266455396073862045
21250096 35 18412823616038319970
21673915 165 18411133637108325874
2255824 54 17972607851070382092
22646028 28 18333730230120248994
23184049 29 18411423907861463140
23557571 272 18202567293393949426
23559900 14 18201164269465053020
3004659 81 18261112997416712454
339767 52 18335688451734219290
4921388 177 15792021137741376355
4990 188 11314306127265254096
5104073 3 18411703200852259377
5309563 4 16966620841072171891
633830 44 16298385777501246581
6823239 73 18059309677585970862
8988823 20 17489013972488527185
9709674 26 18410300245511496166
9981440 41 17252308003699654305

> <PUBCHEM_SHAPE_MULTIPOLES>
352.82
9.53
2.64
0.9
0.3
0.05
0.01
3.66
-1.43
-0.54
0.05
0.71
-0.08
-0.74

> <PUBCHEM_SHAPE_SELFOVERLAP>
753.51

> <PUBCHEM_SHAPE_VOLUME>
194.8

> <PUBCHEM_COORDINATE_TYPE>
2
5
10

$$$$
