62374
  -OEChem-11232108423D

 23 23  0     0  0  0  0  0  0999 V2000
   -2.2652    0.6192    0.2676 O   0  0  0  0  0  0  0  0  0  0  0  0
    2.9661   -0.4029    0.0247 O   0  0  0  0  0  0  0  0  0  0  0  0
   -0.5936   -1.0986   -0.0537 C   0  0  0  0  0  0  0  0  0  0  0  0
    0.8000   -1.2740    0.5590 C   0  0  0  0  0  0  0  0  0  0  0  0
   -1.0746    0.3465    0.1095 C   0  0  0  0  0  0  0  0  0  0  0  0
   -1.5675   -2.0532    0.6573 C   0  0  0  0  0  0  0  0  0  0  0  0
   -0.5803   -1.4295   -1.5554 C   0  0  0  0  0  0  0  0  0  0  0  0
   -0.0742    1.4516   -0.0084 C   0  0  0  0  0  0  0  0  0  0  0  0
    1.7615   -0.1889    0.1461 C   0  0  0  0  0  0  0  0  0  0  0  0
    1.2366    1.1830   -0.0260 C   0  0  0  0  0  0  0  0  0  0  0  0
   -0.6089    2.8467   -0.1208 C   0  0  0  0  0  0  0  0  0  0  0  0
    1.2240   -2.2424    0.2670 H   0  0  0  0  0  0  0  0  0  0  0  0
    0.7516   -1.2489    1.6552 H   0  0  0  0  0  0  0  0  0  0  0  0
   -1.6635   -1.8006    1.7197 H   0  0  0  0  0  0  0  0  0  0  0  0
   -2.5713   -2.0023    0.2198 H   0  0  0  0  0  0  0  0  0  0  0  0
   -1.2267   -3.0922    0.5864 H   0  0  0  0  0  0  0  0  0  0  0  0
   -0.2666   -2.4647   -1.7302 H   0  0  0  0  0  0  0  0  0  0  0  0
   -1.5768   -1.3022   -1.9948 H   0  0  0  0  0  0  0  0  0  0  0  0
    0.0994   -0.7758   -2.1129 H   0  0  0  0  0  0  0  0  0  0  0  0
    1.9723    1.9726   -0.1404 H   0  0  0  0  0  0  0  0  0  0  0  0
   -1.1775    3.1122    0.7766 H   0  0  0  0  0  0  0  0  0  0  0  0
   -1.2682    2.9347   -0.9906 H   0  0  0  0  0  0  0  0  0  0  0  0
    0.1919    3.5850   -0.2364 H   0  0  0  0  0  0  0  0  0  0  0  0
  1  5  2  0  0  0  0
  2  9  2  0  0  0  0
  3  4  1  0  0  0  0
  3  5  1  0  0  0  0
  3  6  1  0  0  0  0
  3  7  1  0  0  0  0
  4  9  1  0  0  0  0
  4 12  1  0  0  0  0
  4 13  1  0  0  0  0
  5  8  1  0  0  0  0
  6 14  1  0  0  0  0
  6 15  1  0  0  0  0
  6 16  1  0  0  0  0
  7 17  1  0  0  0  0
  7 18  1  0  0  0  0
  7 19  1  0  0  0  0
  8 10  2  0  0  0  0
  8 11  1  0  0  0  0
  9 10  1  0  0  0  0
 10 20  1  0  0  0  0
 11 21  1  0  0  0  0
 11 22  1  0  0  0  0
 11 23  1  0  0  0  0
M  END
> <PUBCHEM_COMPOUND_CID>
62374

> <PUBCHEM_CONFORMER_RMSD>
0.4

> <PUBCHEM_CONFORMER_DIVERSEORDER>
2
1

> <PUBCHEM_MMFF94_PARTIAL_CHARGES>
10
1 -0.57
10 -0.14
11 0.14
2 -0.57
20 0.15
3 0.06
4 0.06
5 0.49
8 -0.12
9 0.49

> <PUBCHEM_EFFECTIVE_ROTOR_COUNT>
0.4

> <PUBCHEM_PHARMACOPHORE_FEATURES>
4
1 1 acceptor
1 2 acceptor
3 3 6 7 hydrophobe
6 3 4 5 8 9 10 rings

> <PUBCHEM_HEAVY_ATOM_COUNT>
11

> <PUBCHEM_ATOM_DEF_STEREO_COUNT>
0

> <PUBCHEM_ATOM_UDEF_STEREO_COUNT>
0

> <PUBCHEM_BOND_DEF_STEREO_COUNT>
0

> <PUBCHEM_BOND_UDEF_STEREO_COUNT>
0

> <PUBCHEM_ISOTOPIC_ATOM_COUNT>
0

> <PUBCHEM_COMPONENT_COUNT>
1

> <PUBCHEM_CACTVS_TAUTO_COUNT>
5

> <PUBCHEM_CONFORMER_ID>
0000F3A600000002

> <PUBCHEM_MMFF94_ENERGY>
21.8669

> <PUBCHEM_FEATURE_SELFOVERLAP>
20.297

> <PUBCHEM_SHAPE_FINGERPRINT>
12423570 1 10732272963732210087
13024252 1 17603305934094767674
137420 1 9565162785586611371
14817 1 14371153420932488510
16945 1 18336270033144760392
18185500 45 18267297819068757172
193761 8 18049445047702191273
20871998 184 18272654553962484366
21040471 1 18050001100038173632
23552423 10 17545885287785007583
2748010 2 18267019638363734500
5084963 1 17840015248083799355

> <PUBCHEM_SHAPE_MULTIPOLES>
214.64
2.67
2.48
0.91
0.15
0.86
-0.31
-0.95
0.03
-1.06
0.24
0.49
0
-0.11

> <PUBCHEM_SHAPE_SELFOVERLAP>
438.913

> <PUBCHEM_SHAPE_VOLUME>
124.1

> <PUBCHEM_COORDINATE_TYPE>
2
5
10

$$$$
