62424
  -OEChem-11232108583D

 18 17  0     1  0  0  0  0  0999 V2000
    1.4623   -1.5715   -0.1971 S   0  0  0  0  0  0  0  0  0  0  0  0
   -0.3361    0.5661   -0.1435 C   0  0  0  0  0  0  0  0  0  0  0  0
    1.0455    0.1193    0.3609 C   0  0  2  0  0  0  0  0  0  0  0  0
   -1.4829   -0.3433    0.3112 C   0  0  0  0  0  0  0  0  0  0  0  0
    2.1345    1.0742   -0.1234 C   0  0  0  0  0  0  0  0  0  0  0  0
   -2.8233    0.1552   -0.2081 C   0  0  0  0  0  0  0  0  0  0  0  0
   -0.3323    0.6241   -1.2402 H   0  0  0  0  0  0  0  0  0  0  0  0
   -0.5298    1.5848    0.2172 H   0  0  0  0  0  0  0  0  0  0  0  0
    1.0440    0.1091    1.4565 H   0  0  0  0  0  0  0  0  0  0  0  0
   -1.5115   -0.3826    1.4063 H   0  0  0  0  0  0  0  0  0  0  0  0
   -1.3449   -1.3675   -0.0488 H   0  0  0  0  0  0  0  0  0  0  0  0
    2.1881    1.1126   -1.2173 H   0  0  0  0  0  0  0  0  0  0  0  0
    1.9339    2.0911    0.2319 H   0  0  0  0  0  0  0  0  0  0  0  0
    3.1194    0.7854    0.2605 H   0  0  0  0  0  0  0  0  0  0  0  0
   -3.6296   -0.5024    0.1313 H   0  0  0  0  0  0  0  0  0  0  0  0
   -2.8378    0.1738   -1.3025 H   0  0  0  0  0  0  0  0  0  0  0  0
   -3.0339    1.1659    0.1561 H   0  0  0  0  0  0  0  0  0  0  0  0
    1.3908   -1.3245   -1.5135 H   0  0  0  0  0  0  0  0  0  0  0  0
  1  3  1  0  0  0  0
  1 18  1  0  0  0  0
  2  3  1  0  0  0  0
  2  4  1  0  0  0  0
  2  7  1  0  0  0  0
  2  8  1  0  0  0  0
  3  5  1  0  0  0  0
  3  9  1  0  0  0  0
  4  6  1  0  0  0  0
  4 10  1  0  0  0  0
  4 11  1  0  0  0  0
  5 12  1  0  0  0  0
  5 13  1  0  0  0  0
  5 14  1  0  0  0  0
  6 15  1  0  0  0  0
  6 16  1  0  0  0  0
  6 17  1  0  0  0  0
M  END
> <PUBCHEM_COMPOUND_CID>
62424

> <PUBCHEM_CONFORMER_RMSD>
0.4

> <PUBCHEM_CONFORMER_DIVERSEORDER>
9
10
8
3
5
4
7
2
6
1

> <PUBCHEM_MMFF94_PARTIAL_CHARGES>
3
1 -0.41
18 0.18
3 0.23

> <PUBCHEM_EFFECTIVE_ROTOR_COUNT>
2

> <PUBCHEM_PHARMACOPHORE_FEATURES>
1
1 6 hydrophobe

> <PUBCHEM_HEAVY_ATOM_COUNT>
6

> <PUBCHEM_ATOM_DEF_STEREO_COUNT>
0

> <PUBCHEM_ATOM_UDEF_STEREO_COUNT>
1

> <PUBCHEM_BOND_DEF_STEREO_COUNT>
0

> <PUBCHEM_BOND_UDEF_STEREO_COUNT>
0

> <PUBCHEM_ISOTOPIC_ATOM_COUNT>
0

> <PUBCHEM_COMPONENT_COUNT>
1

> <PUBCHEM_CACTVS_TAUTO_COUNT>
1

> <PUBCHEM_CONFORMER_ID>
0000F3D800000009

> <PUBCHEM_MMFF94_ENERGY>
2.432

> <PUBCHEM_FEATURE_SELFOVERLAP>
5.074

> <PUBCHEM_SHAPE_FINGERPRINT>
12932741 1 17894920611368664587
12932764 1 17489862752715827321
139733 1 8862353432735889362
14390081 3 18340767134603046321
20096714 4 18339360893569539272
20711978 78 18200581497941947310
21040471 1 18195526119745165344
23552333 60 18202004291636877834
23552423 10 18337112250556784039
23552449 11 18263072241232989914
24536 1 18337379457499104713
29004967 10 18334862726943812633
5460574 1 10087650303331669777

> <PUBCHEM_SHAPE_MULTIPOLES>
127.33
3.62
1.36
0.69
2.18
0.39
0
-0.25
-0.27
-1.05
-0.1
-0.01
0.02
0.08

> <PUBCHEM_SHAPE_SELFOVERLAP>
208.533

> <PUBCHEM_SHAPE_VOLUME>
89

> <PUBCHEM_COORDINATE_TYPE>
2
5
10

$$$$
