62490
  -OEChem-11232109143D

 32 33  0     1  0  0  0  0  0999 V2000
   -2.9102    1.0316    0.2998 O   0  0  0  0  0  0  0  0  0  0  0  0
   -2.8054   -0.4023    0.2949 C   0  0  1  0  0  0  0  0  0  0  0  0
   -4.1539   -0.9235   -0.1709 C   0  0  0  0  0  0  0  0  0  0  0  0
   -1.6518   -0.8311   -0.5909 C   0  0  0  0  0  0  0  0  0  0  0  0
   -5.0905    0.1066    0.4083 C   0  0  0  0  0  0  0  0  0  0  0  0
   -4.2997    1.3851    0.2281 C   0  0  0  0  0  0  0  0  0  0  0  0
   -0.3118   -0.3156   -0.0620 C   0  0  0  0  0  0  0  0  0  0  0  0
    0.8518   -0.7869   -0.9368 C   0  0  0  0  0  0  0  0  0  0  0  0
    2.1789   -0.3125   -0.4021 C   0  0  0  0  0  0  0  0  0  0  0  0
    2.6869    0.9075   -0.8237 C   0  0  0  0  0  0  0  0  0  0  0  0
    2.8711   -1.1031    0.5035 C   0  0  0  0  0  0  0  0  0  0  0  0
    3.9148    1.3467   -0.3288 C   0  0  0  0  0  0  0  0  0  0  0  0
    4.0989   -0.6637    0.9984 C   0  0  0  0  0  0  0  0  0  0  0  0
    4.6208    0.5612    0.5822 C   0  0  0  0  0  0  0  0  0  0  0  0
   -2.6261   -0.7156    1.3311 H   0  0  0  0  0  0  0  0  0  0  0  0
   -4.3592   -1.9405    0.1745 H   0  0  0  0  0  0  0  0  0  0  0  0
   -4.2248   -0.9110   -1.2654 H   0  0  0  0  0  0  0  0  0  0  0  0
   -1.7978   -0.4417   -1.6063 H   0  0  0  0  0  0  0  0  0  0  0  0
   -1.6255   -1.9254   -0.6570 H   0  0  0  0  0  0  0  0  0  0  0  0
   -6.0682    0.1371   -0.0795 H   0  0  0  0  0  0  0  0  0  0  0  0
   -5.2457   -0.0903    1.4757 H   0  0  0  0  0  0  0  0  0  0  0  0
   -4.4796    1.8266   -0.7578 H   0  0  0  0  0  0  0  0  0  0  0  0
   -4.5299    2.1325    0.9926 H   0  0  0  0  0  0  0  0  0  0  0  0
   -0.3207    0.7808   -0.0223 H   0  0  0  0  0  0  0  0  0  0  0  0
   -0.1670   -0.6668    0.9677 H   0  0  0  0  0  0  0  0  0  0  0  0
    0.7197   -0.4276   -1.9656 H   0  0  0  0  0  0  0  0  0  0  0  0
    0.8551   -1.8826   -1.0028 H   0  0  0  0  0  0  0  0  0  0  0  0
    2.1437    1.5274   -1.5313 H   0  0  0  0  0  0  0  0  0  0  0  0
    2.4721   -2.0575    0.8352 H   0  0  0  0  0  0  0  0  0  0  0  0
    4.3209    2.3007   -0.6522 H   0  0  0  0  0  0  0  0  0  0  0  0
    4.6485   -1.2749    1.7083 H   0  0  0  0  0  0  0  0  0  0  0  0
    5.5767    0.9033    0.9679 H   0  0  0  0  0  0  0  0  0  0  0  0
  1  2  1  0  0  0  0
  1  6  1  0  0  0  0
  2  3  1  0  0  0  0
  2  4  1  0  0  0  0
  2 15  1  0  0  0  0
  3  5  1  0  0  0  0
  3 16  1  0  0  0  0
  3 17  1  0  0  0  0
  4  7  1  0  0  0  0
  4 18  1  0  0  0  0
  4 19  1  0  0  0  0
  5  6  1  0  0  0  0
  5 20  1  0  0  0  0
  5 21  1  0  0  0  0
  6 22  1  0  0  0  0
  6 23  1  0  0  0  0
  7  8  1  0  0  0  0
  7 24  1  0  0  0  0
  7 25  1  0  0  0  0
  8  9  1  0  0  0  0
  8 26  1  0  0  0  0
  8 27  1  0  0  0  0
  9 10  2  0  0  0  0
  9 11  1  0  0  0  0
 10 12  1  0  0  0  0
 10 28  1  0  0  0  0
 11 13  2  0  0  0  0
 11 29  1  0  0  0  0
 12 14  2  0  0  0  0
 12 30  1  0  0  0  0
 13 14  1  0  0  0  0
 13 31  1  0  0  0  0
 14 32  1  0  0  0  0
M  END
> <PUBCHEM_COMPOUND_CID>
62490

> <PUBCHEM_CONFORMER_RMSD>
0.6

> <PUBCHEM_CONFORMER_DIVERSEORDER>
1
37
40
2
41
11
43
9
20
16
14
23
34
39
35
25
42
3
26
6
32
7
24
29
27
15
4
22
33
5
36
19
28
13
38
17
18
10
8
12
21
30
31

> <PUBCHEM_MMFF94_PARTIAL_CHARGES>
15
1 -0.56
10 -0.15
11 -0.15
12 -0.15
13 -0.15
14 -0.15
2 0.28
28 0.15
29 0.15
30 0.15
31 0.15
32 0.15
6 0.28
8 0.14
9 -0.14

> <PUBCHEM_EFFECTIVE_ROTOR_COUNT>
5

> <PUBCHEM_PHARMACOPHORE_FEATURES>
3
1 1 acceptor
5 1 2 3 5 6 rings
6 9 10 11 12 13 14 rings

> <PUBCHEM_HEAVY_ATOM_COUNT>
14

> <PUBCHEM_ATOM_DEF_STEREO_COUNT>
0

> <PUBCHEM_ATOM_UDEF_STEREO_COUNT>
1

> <PUBCHEM_BOND_DEF_STEREO_COUNT>
0

> <PUBCHEM_BOND_UDEF_STEREO_COUNT>
0

> <PUBCHEM_ISOTOPIC_ATOM_COUNT>
0

> <PUBCHEM_COMPONENT_COUNT>
1

> <PUBCHEM_CACTVS_TAUTO_COUNT>
1

> <PUBCHEM_CONFORMER_ID>
0000F41A00000001

> <PUBCHEM_MMFF94_ENERGY>
27.0678

> <PUBCHEM_FEATURE_SELFOVERLAP>
15.223

> <PUBCHEM_SHAPE_FINGERPRINT>
10014705 185 18410854327132703461
10354089 29 18333452058353132072
10912923 1 18335137622167879723
11128504 68 12751233718287603579
11543360 7 11671774979326381791
12107183 9 17686050600554991081
12251169 10 18260265265535978694
12596602 18 17603587452047726985
12670546 56 18040989627227630505
13167823 11 18334010609827948035
13533116 47 17822289046507350923
13675066 3 16805323288472200671
14123238 8 18202562891141777851
14251718 22 9079107873828257522
14252887 29 15936404533782246746
15188451 53 16371294449747863651
15477762 27 10159708997345325692
18186145 218 18113618967138188718
19050596 39 18334575758719858383
200 152 9511463324864838310
20432913 95 16153426138440131139
20645477 56 17632858650480871655
20645477 70 12031800158021822492
20767249 442 17346597478332592398
212847 35 18131068234288427152
21652331 79 18411419522636862053
22854114 59 17749106694717639575
23048698 100 18260268546758909610
23402539 116 18411129256341813447
23402655 69 11527955560121133738
23557571 272 17274835687466832781
23559900 14 17987244330499486526
23590187 302 10375870779715769454
26918003 58 17313101964340511680
3060560 45 13398913133621643948
351380 180 18334293167231024889
351380 3 10953461829877646769
3545911 37 18202570574495541654
42 15 17603303739071060782
465052 167 11891344131647377617
4921388 177 14189282803540790789
5104073 3 18408044004912195505
5281201 14 13614252472688304520
5374978 207 18334295361684961081
542803 24 18342458148889067278
573450 72 18408878538638405547

> <PUBCHEM_SHAPE_MULTIPOLES>
282.24
11.75
1.33
0.91
5.24
0.26
0.02
2.41
-2.6
-0.05
0.02
-0.52
-0.07
-0.68

> <PUBCHEM_SHAPE_SELFOVERLAP>
579.107

> <PUBCHEM_SHAPE_VOLUME>
164.1

> <PUBCHEM_COORDINATE_TYPE>
2
5
10

$$$$
