62571
  -OEChem-11232109103D

 53 52  0     0  0  0  0  0  0999 V2000
   -4.1861    0.2385   -0.0453 O   0  0  0  0  0  0  0  0  0  0  0  0
   -3.0933   -1.7916    0.0228 O   0  0  0  0  0  0  0  0  0  0  0  0
    3.2260    0.4226   -0.1180 C   0  0  0  0  0  0  0  0  0  0  0  0
    4.5037   -0.4182   -0.0859 C   0  0  0  0  0  0  0  0  0  0  0  0
    1.9798   -0.4595   -0.0142 C   0  0  0  0  0  0  0  0  0  0  0  0
    5.7866    0.4189   -0.0940 C   0  0  0  0  0  0  0  0  0  0  0  0
    0.6996    0.3760   -0.0792 C   0  0  0  0  0  0  0  0  0  0  0  0
    7.1002   -0.3621    0.0250 C   0  0  0  0  0  0  0  0  0  0  0  0
   -0.5464   -0.5123   -0.0095 C   0  0  0  0  0  0  0  0  0  0  0  0
    8.3394    0.5352    0.0718 C   0  0  0  0  0  0  0  0  0  0  0  0
   -1.8431    0.2919   -0.1001 C   0  0  0  0  0  0  0  0  0  0  0  0
    9.6539   -0.2494    0.1002 C   0  0  0  0  0  0  0  0  0  0  0  0
   -3.0850   -0.5701   -0.0424 C   0  0  0  0  0  0  0  0  0  0  0  0
   10.8915    0.6344    0.1182 C   0  0  0  0  0  0  0  0  0  0  0  0
   -6.5607    0.6004    0.0219 C   0  0  0  0  0  0  0  0  0  0  0  0
   -7.9391   -0.0530    0.0911 C   0  0  0  0  0  0  0  0  0  0  0  0
   -5.4459   -0.4359    0.0363 C   0  0  0  0  0  0  0  0  0  0  0  0
   -9.0532    0.9916    0.0334 C   0  0  0  0  0  0  0  0  0  0  0  0
  -10.4278    0.3427    0.0679 C   0  0  0  0  0  0  0  0  0  0  0  0
    3.1958    1.0039   -1.0473 H   0  0  0  0  0  0  0  0  0  0  0  0
    3.2361    1.1392    0.7121 H   0  0  0  0  0  0  0  0  0  0  0  0
    4.5154   -1.1002   -0.9449 H   0  0  0  0  0  0  0  0  0  0  0  0
    4.4999   -1.0446    0.8148 H   0  0  0  0  0  0  0  0  0  0  0  0
    2.0037   -1.0233    0.9261 H   0  0  0  0  0  0  0  0  0  0  0  0
    1.9814   -1.1918   -0.8308 H   0  0  0  0  0  0  0  0  0  0  0  0
    5.8116    1.0136   -1.0159 H   0  0  0  0  0  0  0  0  0  0  0  0
    5.7372    1.1375    0.7342 H   0  0  0  0  0  0  0  0  0  0  0  0
    0.6849    1.0953    0.7486 H   0  0  0  0  0  0  0  0  0  0  0  0
    0.6840    0.9537   -1.0113 H   0  0  0  0  0  0  0  0  0  0  0  0
    7.0706   -0.9811    0.9299 H   0  0  0  0  0  0  0  0  0  0  0  0
    7.1802   -1.0495   -0.8260 H   0  0  0  0  0  0  0  0  0  0  0  0
   -0.5371   -1.0851    0.9264 H   0  0  0  0  0  0  0  0  0  0  0  0
   -0.5181   -1.2470   -0.8242 H   0  0  0  0  0  0  0  0  0  0  0  0
    8.2843    1.1825    0.9556 H   0  0  0  0  0  0  0  0  0  0  0  0
    8.3379    1.1952   -0.8044 H   0  0  0  0  0  0  0  0  0  0  0  0
   -1.8853    1.0040    0.7321 H   0  0  0  0  0  0  0  0  0  0  0  0
   -1.8641    0.8493   -1.0434 H   0  0  0  0  0  0  0  0  0  0  0  0
    9.6688   -0.8985    0.9839 H   0  0  0  0  0  0  0  0  0  0  0  0
    9.7034   -0.9060   -0.7766 H   0  0  0  0  0  0  0  0  0  0  0  0
   -6.4745    1.2103   -0.8863 H   0  0  0  0  0  0  0  0  0  0  0  0
   -6.4254    1.2931    0.8618 H   0  0  0  0  0  0  0  0  0  0  0  0
   11.7974    0.0206    0.1391 H   0  0  0  0  0  0  0  0  0  0  0  0
   10.9299    1.2698   -0.7723 H   0  0  0  0  0  0  0  0  0  0  0  0
   10.8961    1.2805    1.0017 H   0  0  0  0  0  0  0  0  0  0  0  0
   -8.0536   -0.7561   -0.7429 H   0  0  0  0  0  0  0  0  0  0  0  0
   -8.0257   -0.6341    1.0174 H   0  0  0  0  0  0  0  0  0  0  0  0
   -5.4852   -1.0184    0.9643 H   0  0  0  0  0  0  0  0  0  0  0  0
   -5.5488   -1.1125   -0.8201 H   0  0  0  0  0  0  0  0  0  0  0  0
   -8.9607    1.5853   -0.8835 H   0  0  0  0  0  0  0  0  0  0  0  0
   -8.9591    1.6832    0.8787 H   0  0  0  0  0  0  0  0  0  0  0  0
  -10.5659   -0.3297   -0.7847 H   0  0  0  0  0  0  0  0  0  0  0  0
  -10.5657   -0.2351    0.9874 H   0  0  0  0  0  0  0  0  0  0  0  0
  -11.2093    1.1079    0.0272 H   0  0  0  0  0  0  0  0  0  0  0  0
  1 13  1  0  0  0  0
  1 17  1  0  0  0  0
  2 13  2  0  0  0  0
  3  4  1  0  0  0  0
  3  5  1  0  0  0  0
  3 20  1  0  0  0  0
  3 21  1  0  0  0  0
  4  6  1  0  0  0  0
  4 22  1  0  0  0  0
  4 23  1  0  0  0  0
  5  7  1  0  0  0  0
  5 24  1  0  0  0  0
  5 25  1  0  0  0  0
  6  8  1  0  0  0  0
  6 26  1  0  0  0  0
  6 27  1  0  0  0  0
  7  9  1  0  0  0  0
  7 28  1  0  0  0  0
  7 29  1  0  0  0  0
  8 10  1  0  0  0  0
  8 30  1  0  0  0  0
  8 31  1  0  0  0  0
  9 11  1  0  0  0  0
  9 32  1  0  0  0  0
  9 33  1  0  0  0  0
 10 12  1  0  0  0  0
 10 34  1  0  0  0  0
 10 35  1  0  0  0  0
 11 13  1  0  0  0  0
 11 36  1  0  0  0  0
 11 37  1  0  0  0  0
 12 14  1  0  0  0  0
 12 38  1  0  0  0  0
 12 39  1  0  0  0  0
 14 42  1  0  0  0  0
 14 43  1  0  0  0  0
 14 44  1  0  0  0  0
 15 16  1  0  0  0  0
 15 17  1  0  0  0  0
 15 40  1  0  0  0  0
 15 41  1  0  0  0  0
 16 18  1  0  0  0  0
 16 45  1  0  0  0  0
 16 46  1  0  0  0  0
 17 47  1  0  0  0  0
 17 48  1  0  0  0  0
 18 19  1  0  0  0  0
 18 49  1  0  0  0  0
 18 50  1  0  0  0  0
 19 51  1  0  0  0  0
 19 52  1  0  0  0  0
 19 53  1  0  0  0  0
M  END
> <PUBCHEM_COMPOUND_CID>
62571

> <PUBCHEM_CONFORMER_RMSD>
1.4

> <PUBCHEM_CONFORMER_DIVERSEORDER>
1
13
45
54
50
20
7
27
51
53
12
47
37
55
4
52
6
40
49
56
33
11
31
32
25
8
15
41
36
24
43
30
2
21
16
14
10
48
46
17
26
35
28
39
9
23
42
34
29
5
3
38
44
22
19
18

> <PUBCHEM_MMFF94_PARTIAL_CHARGES>
5
1 -0.43
11 0.06
13 0.66
17 0.28
2 -0.57

> <PUBCHEM_EFFECTIVE_ROTOR_COUNT>
15

> <PUBCHEM_PHARMACOPHORE_FEATURES>
3
1 14 hydrophobe
1 19 hydrophobe
1 2 acceptor

> <PUBCHEM_HEAVY_ATOM_COUNT>
19

> <PUBCHEM_ATOM_DEF_STEREO_COUNT>
0

> <PUBCHEM_ATOM_UDEF_STEREO_COUNT>
0

> <PUBCHEM_BOND_DEF_STEREO_COUNT>
0

> <PUBCHEM_BOND_UDEF_STEREO_COUNT>
0

> <PUBCHEM_ISOTOPIC_ATOM_COUNT>
0

> <PUBCHEM_COMPONENT_COUNT>
1

> <PUBCHEM_CACTVS_TAUTO_COUNT>
1

> <PUBCHEM_CONFORMER_ID>
0000F46B00000001

> <PUBCHEM_MMFF94_ENERGY>
-0.4353

> <PUBCHEM_FEATURE_SELFOVERLAP>
15.223

> <PUBCHEM_SHAPE_FINGERPRINT>
11315181 36 17704076213203178435
14251764 46 18410573985151451137
14251920 1 18410575080368111617
14344974 52 17131544033194024931
15061470 23 18410009927118209605
15510794 2 18408327682901926722
155225 1 18413389826294184961
18335252 98 11458418034054752096
21095086 128 9151177550084027132
21150785 3 14045742620895384353
21267235 1 8070027770069727854
21792934 111 17917987300996146136
232437 2 18334857216838511746
23521765 1 18341895190345678862
23581129 1 18409449184756320740
246663 6 11818995175770711661
33684 2 18410855460128161792
67123 10 18410855464423129092
8209 1 18410856559639789573

> <PUBCHEM_SHAPE_MULTIPOLES>
379.27
41.8
0.95
0.61
14.72
0.16
0
-9.57
-2.14
-0.56
-0.01
0.05
-0.01
0.02

> <PUBCHEM_SHAPE_SELFOVERLAP>
688.783

> <PUBCHEM_SHAPE_VOLUME>
242.6

> <PUBCHEM_COORDINATE_TYPE>
2
5
10

$$$$
