62575
  -OEChem-11232109273D

 35 34  0     0  0  0  0  0  0999 V2000
    0.9821   -0.1298   -0.0031 O   0  0  0  0  0  0  0  0  0  0  0  0
    2.2434    1.7938    0.0257 O   0  0  0  0  0  0  0  0  0  0  0  0
    3.3618   -0.3790   -0.0005 C   0  0  0  0  0  0  0  0  0  0  0  0
   -2.7244    0.4855   -0.0214 C   0  0  0  0  0  0  0  0  0  0  0  0
   -1.4079   -0.2901   -0.0120 C   0  0  0  0  0  0  0  0  0  0  0  0
   -3.9622   -0.4159   -0.0044 C   0  0  0  0  0  0  0  0  0  0  0  0
   -0.2076    0.6472    0.0037 C   0  0  0  0  0  0  0  0  0  0  0  0
   -5.2795    0.3599   -0.0388 C   0  0  0  0  0  0  0  0  0  0  0  0
    2.1602    0.5716    0.0094 C   0  0  0  0  0  0  0  0  0  0  0  0
    3.3181   -1.2468   -1.2653 C   0  0  0  0  0  0  0  0  0  0  0  0
    4.6632    0.4395   -0.0014 C   0  0  0  0  0  0  0  0  0  0  0  0
    3.3287   -1.2604    1.2551 C   0  0  0  0  0  0  0  0  0  0  0  0
   -6.4759   -0.5754    0.0530 C   0  0  0  0  0  0  0  0  0  0  0  0
   -2.7581    1.1527    0.8488 H   0  0  0  0  0  0  0  0  0  0  0  0
   -2.7599    1.1252   -0.9120 H   0  0  0  0  0  0  0  0  0  0  0  0
   -1.3490   -0.9461   -0.8892 H   0  0  0  0  0  0  0  0  0  0  0  0
   -1.3642   -0.9520    0.8618 H   0  0  0  0  0  0  0  0  0  0  0  0
   -3.9227   -1.0976   -0.8631 H   0  0  0  0  0  0  0  0  0  0  0  0
   -3.9327   -1.0410    0.8969 H   0  0  0  0  0  0  0  0  0  0  0  0
   -0.2253    1.2937   -0.8815 H   0  0  0  0  0  0  0  0  0  0  0  0
   -0.2308    1.2713    0.9048 H   0  0  0  0  0  0  0  0  0  0  0  0
   -5.3140    1.0698    0.7957 H   0  0  0  0  0  0  0  0  0  0  0  0
   -5.3427    0.9428   -0.9647 H   0  0  0  0  0  0  0  0  0  0  0  0
    3.2861   -0.6257   -2.1679 H   0  0  0  0  0  0  0  0  0  0  0  0
    4.1983   -1.8958   -1.3318 H   0  0  0  0  0  0  0  0  0  0  0  0
    2.4313   -1.8904   -1.2829 H   0  0  0  0  0  0  0  0  0  0  0  0
    4.7219    1.0911   -0.8809 H   0  0  0  0  0  0  0  0  0  0  0  0
    5.5436   -0.2128   -0.0093 H   0  0  0  0  0  0  0  0  0  0  0  0
    4.7300    1.0806    0.8853 H   0  0  0  0  0  0  0  0  0  0  0  0
    2.4398   -1.9009    1.2748 H   0  0  0  0  0  0  0  0  0  0  0  0
    4.2076   -1.9127    1.3057 H   0  0  0  0  0  0  0  0  0  0  0  0
    3.3078   -0.6490    2.1647 H   0  0  0  0  0  0  0  0  0  0  0  0
   -7.4078   -0.0020    0.0243 H   0  0  0  0  0  0  0  0  0  0  0  0
   -6.4858   -1.2824   -0.7828 H   0  0  0  0  0  0  0  0  0  0  0  0
   -6.4572   -1.1465    0.9867 H   0  0  0  0  0  0  0  0  0  0  0  0
  1  7  1  0  0  0  0
  1  9  1  0  0  0  0
  2  9  2  0  0  0  0
  3  9  1  0  0  0  0
  3 10  1  0  0  0  0
  3 11  1  0  0  0  0
  3 12  1  0  0  0  0
  4  5  1  0  0  0  0
  4  6  1  0  0  0  0
  4 14  1  0  0  0  0
  4 15  1  0  0  0  0
  5  7  1  0  0  0  0
  5 16  1  0  0  0  0
  5 17  1  0  0  0  0
  6  8  1  0  0  0  0
  6 18  1  0  0  0  0
  6 19  1  0  0  0  0
  7 20  1  0  0  0  0
  7 21  1  0  0  0  0
  8 13  1  0  0  0  0
  8 22  1  0  0  0  0
  8 23  1  0  0  0  0
 10 24  1  0  0  0  0
 10 25  1  0  0  0  0
 10 26  1  0  0  0  0
 11 27  1  0  0  0  0
 11 28  1  0  0  0  0
 11 29  1  0  0  0  0
 12 30  1  0  0  0  0
 12 31  1  0  0  0  0
 12 32  1  0  0  0  0
 13 33  1  0  0  0  0
 13 34  1  0  0  0  0
 13 35  1  0  0  0  0
M  END
> <PUBCHEM_COMPOUND_CID>
62575

> <PUBCHEM_CONFORMER_RMSD>
0.8

> <PUBCHEM_CONFORMER_DIVERSEORDER>
1
28
70
2
35
22
20
14
10
66
27
61
46
4
50
11
12
51
59
40
56
47
21
16
45
62
48
29
37
41
30
8
68
43
65
9
31
25
60
34
49
32
67
19
69
58
26
6
57
24
64
33
42
13
7
55
53
15
38
63
3
44
36
54
5
52
23
17
18
39

> <PUBCHEM_MMFF94_PARTIAL_CHARGES>
5
1 -0.43
2 -0.57
3 0.06
7 0.28
9 0.66

> <PUBCHEM_EFFECTIVE_ROTOR_COUNT>
7

> <PUBCHEM_PHARMACOPHORE_FEATURES>
4
1 13 hydrophobe
1 2 acceptor
4 3 10 11 12 hydrophobe
4 4 5 6 8 hydrophobe

> <PUBCHEM_HEAVY_ATOM_COUNT>
13

> <PUBCHEM_ATOM_DEF_STEREO_COUNT>
0

> <PUBCHEM_ATOM_UDEF_STEREO_COUNT>
0

> <PUBCHEM_BOND_DEF_STEREO_COUNT>
0

> <PUBCHEM_BOND_UDEF_STEREO_COUNT>
0

> <PUBCHEM_ISOTOPIC_ATOM_COUNT>
0

> <PUBCHEM_COMPONENT_COUNT>
1

> <PUBCHEM_CACTVS_TAUTO_COUNT>
1

> <PUBCHEM_CONFORMER_ID>
0000F46F00000001

> <PUBCHEM_MMFF94_ENERGY>
13.2092

> <PUBCHEM_FEATURE_SELFOVERLAP>
20.297

> <PUBCHEM_SHAPE_FINGERPRINT>
13167823 11 18412260671039612751
13533116 47 15985111764689457879
14123238 8 18344145891022276213
1420 363 18040722485316448651
14251718 22 18259987089136212845
14252887 29 18272374148770201410
15242439 84 17967814959804585257
15477762 27 18343305847117087364
17834072 33 18341894134279609341
17834076 25 16630527340656150760
17844677 252 18113623391640461773
20279233 1 17676493851892653296
20369508 70 18259978267320866288
20645477 70 18411702075539347558
22485316 2 18186518812937036875
23402539 116 17775280557007749205
42 15 17131835339361445087
42788 4 18410011039999490253
465052 167 18410859849648574695
522135 26 17822009804718065002
5374978 207 17846493742577898985
57483677 66 18408038537909749123

> <PUBCHEM_SHAPE_MULTIPOLES>
255.8
13.39
1.2
0.86
19.09
0.1
0.01
-2.19
-0.07
-1.05
-0.01
-0.84
-0.32
0.03

> <PUBCHEM_SHAPE_SELFOVERLAP>
473.056

> <PUBCHEM_SHAPE_VOLUME>
163

> <PUBCHEM_COORDINATE_TYPE>
2
5
10

$$$$
