62578
  -OEChem-11232109143D

 36 36  0     0  0  0  0  0  0999 V2000
   -1.8747    0.4152    0.4161 O   0  0  0  0  0  0  0  0  0  0  0  0
   -3.4209    1.6964   -0.7186 O   0  0  0  0  0  0  0  0  0  0  0  0
   -4.7497   -1.0669    0.4872 C   0  0  0  0  0  0  0  0  0  0  0  0
   -4.1169    0.2047    1.0734 C   0  0  0  0  0  0  0  0  0  0  0  0
    0.5023    0.3770    0.0647 C   0  0  0  0  0  0  0  0  0  0  0  0
    1.6726    0.9530   -0.7307 C   0  0  0  0  0  0  0  0  0  0  0  0
   -0.8240    0.9825   -0.3731 C   0  0  0  0  0  0  0  0  0  0  0  0
   -5.4792   -0.7747   -0.8264 C   0  0  0  0  0  0  0  0  0  0  0  0
   -3.6731   -2.1289    0.2555 C   0  0  0  0  0  0  0  0  0  0  0  0
    2.9821    0.3232   -0.3307 C   0  0  0  0  0  0  0  0  0  0  0  0
   -3.1324    0.8673    0.1334 C   0  0  0  0  0  0  0  0  0  0  0  0
    3.7270    0.8906    0.6928 C   0  0  0  0  0  0  0  0  0  0  0  0
    3.4219   -0.8141   -0.9919 C   0  0  0  0  0  0  0  0  0  0  0  0
    4.9389    0.3078    1.0632 C   0  0  0  0  0  0  0  0  0  0  0  0
    4.6338   -1.3971   -0.6212 C   0  0  0  0  0  0  0  0  0  0  0  0
    5.3922   -0.8361    0.4064 C   0  0  0  0  0  0  0  0  0  0  0  0
   -5.4746   -1.4539    1.2135 H   0  0  0  0  0  0  0  0  0  0  0  0
   -3.6198   -0.0102    2.0273 H   0  0  0  0  0  0  0  0  0  0  0  0
   -4.8943    0.9435    1.3046 H   0  0  0  0  0  0  0  0  0  0  0  0
    0.6445    0.5505    1.1393 H   0  0  0  0  0  0  0  0  0  0  0  0
    0.4555   -0.7137   -0.0511 H   0  0  0  0  0  0  0  0  0  0  0  0
    1.5086    0.8031   -1.8057 H   0  0  0  0  0  0  0  0  0  0  0  0
    1.7276    2.0399   -0.5873 H   0  0  0  0  0  0  0  0  0  0  0  0
   -0.8089    2.0688   -0.2266 H   0  0  0  0  0  0  0  0  0  0  0  0
   -1.0079    0.7622   -1.4311 H   0  0  0  0  0  0  0  0  0  0  0  0
   -4.7920   -0.4798   -1.6259 H   0  0  0  0  0  0  0  0  0  0  0  0
   -6.0159   -1.6664   -1.1685 H   0  0  0  0  0  0  0  0  0  0  0  0
   -6.2153    0.0250   -0.6929 H   0  0  0  0  0  0  0  0  0  0  0  0
   -2.9726   -1.8447   -0.5364 H   0  0  0  0  0  0  0  0  0  0  0  0
   -3.1020   -2.3154    1.1711 H   0  0  0  0  0  0  0  0  0  0  0  0
   -4.1351   -3.0762   -0.0439 H   0  0  0  0  0  0  0  0  0  0  0  0
    3.3816    1.7801    1.2118 H   0  0  0  0  0  0  0  0  0  0  0  0
    2.8376   -1.2597   -1.7919 H   0  0  0  0  0  0  0  0  0  0  0  0
    5.5293    0.7442    1.8636 H   0  0  0  0  0  0  0  0  0  0  0  0
    4.9866   -2.2881   -1.1322 H   0  0  0  0  0  0  0  0  0  0  0  0
    6.3356   -1.2901    0.6950 H   0  0  0  0  0  0  0  0  0  0  0  0
  1  7  1  0  0  0  0
  1 11  1  0  0  0  0
  2 11  2  0  0  0  0
  3  4  1  0  0  0  0
  3  8  1  0  0  0  0
  3  9  1  0  0  0  0
  3 17  1  0  0  0  0
  4 11  1  0  0  0  0
  4 18  1  0  0  0  0
  4 19  1  0  0  0  0
  5  6  1  0  0  0  0
  5  7  1  0  0  0  0
  5 20  1  0  0  0  0
  5 21  1  0  0  0  0
  6 10  1  0  0  0  0
  6 22  1  0  0  0  0
  6 23  1  0  0  0  0
  7 24  1  0  0  0  0
  7 25  1  0  0  0  0
  8 26  1  0  0  0  0
  8 27  1  0  0  0  0
  8 28  1  0  0  0  0
  9 29  1  0  0  0  0
  9 30  1  0  0  0  0
  9 31  1  0  0  0  0
 10 12  2  0  0  0  0
 10 13  1  0  0  0  0
 12 14  1  0  0  0  0
 12 32  1  0  0  0  0
 13 15  2  0  0  0  0
 13 33  1  0  0  0  0
 14 16  2  0  0  0  0
 14 34  1  0  0  0  0
 15 16  1  0  0  0  0
 15 35  1  0  0  0  0
 16 36  1  0  0  0  0
M  END
> <PUBCHEM_COMPOUND_CID>
62578

> <PUBCHEM_CONFORMER_RMSD>
0.8

> <PUBCHEM_CONFORMER_DIVERSEORDER>
1
126
10
79
74
41
131
96
97
95
56
100
20
38
43
71
77
128
52
108
109
73
137
70
113
35
101
34
121
11
132
76
93
2
102
134
135
3
110
75
68
61
92
133
94
22
84
47
19
4
82
115
129
123
5
88
107
67
49
44
90
105
28
48
103
112
29
63
9
15
59
30
72
32
111
18
60
8
80
16
62
46
83
6
118
27
31
13
45
99
106
7
14
58
23
130
122
36
125
85
57
116
69
33
51
98
86
127
65
120
53
124
87
136
64
39
91
12
24
89
78
114
40
104
42
50
25
117
55
81
21
66
37
119
17
54
26

> <PUBCHEM_MMFF94_PARTIAL_CHARGES>
17
1 -0.43
10 -0.14
11 0.66
12 -0.15
13 -0.15
14 -0.15
15 -0.15
16 -0.15
2 -0.57
32 0.15
33 0.15
34 0.15
35 0.15
36 0.15
4 0.06
6 0.14
7 0.28

> <PUBCHEM_EFFECTIVE_ROTOR_COUNT>
7

> <PUBCHEM_PHARMACOPHORE_FEATURES>
3
1 2 acceptor
3 3 8 9 hydrophobe
6 10 12 13 14 15 16 rings

> <PUBCHEM_HEAVY_ATOM_COUNT>
16

> <PUBCHEM_ATOM_DEF_STEREO_COUNT>
0

> <PUBCHEM_ATOM_UDEF_STEREO_COUNT>
0

> <PUBCHEM_BOND_DEF_STEREO_COUNT>
0

> <PUBCHEM_BOND_UDEF_STEREO_COUNT>
0

> <PUBCHEM_ISOTOPIC_ATOM_COUNT>
0

> <PUBCHEM_COMPONENT_COUNT>
1

> <PUBCHEM_CACTVS_TAUTO_COUNT>
1

> <PUBCHEM_CONFORMER_ID>
0000F47200000001

> <PUBCHEM_MMFF94_ENERGY>
26.03

> <PUBCHEM_FEATURE_SELFOVERLAP>
15.223

> <PUBCHEM_SHAPE_FINGERPRINT>
10354089 29 14476962306986332114
10378564 45 10953724604904049184
10680689 15 18186525380232358145
10803635 8 17530956995635861399
12390115 104 8501835703993917479
12596602 18 15482672385709808223
13167823 11 18260830410038236202
13675066 3 18273213080131388676
13760787 5 15140686856074387452
14123238 8 18059858380478703992
1420 369 18408608071272438714
14251751 93 18335417954831151495
14251752 14 16588295078281125077
14251764 75 14474961290645754234
14252887 29 17489315148743728542
14528608 73 10953743330296866824
14848160 23 18413102866359166815
15183329 4 13334728016477808174
15188451 53 18412256259712450355
15239154 128 10231761075912139475
15880784 105 17917715711931454379
17834072 33 18187654630356038796
17844677 252 18410016524414842560
17857418 61 18408318891219539475
17959699 21 8862943874949188758
18222031 100 17894351081604571292
19489759 90 18040994025437801861
20432913 95 18201727240423701826
20645477 56 9799695904899255657
20645477 70 13407070380207415840
212847 35 10591767563157450908
21673915 165 18413108385318854366
221357 26 12252179697245724351
22289505 5 11458423540440481558
22646028 1 18113340820813723865
23198884 109 14201393890061444495
23402539 116 16588022385705659972
23402655 69 11602824605575758232
23559900 14 18262232347852343577
23590187 198 18334859419987793227
26918003 58 18131352985845331601
29717793 49 17967532371840644429
300161 21 12391514148544498113
316301 35 18337672993557047826
32948 21 14201390594972124564
351380 3 17675928698367827571
42 15 18272093777257285328
4214541 1 18410013208678659737
49783359 22 18272932721756341663
5104073 3 17845653643001418920
542803 24 10952047853560560296
559249 180 18113894919171773131
57483677 66 18334574629248909306
5924683 9 17774717666946655903
7495541 125 17775000240923051096
960060 61 15574716893822379934

> <PUBCHEM_SHAPE_MULTIPOLES>
317.53
14.65
1.61
1.03
1.31
0.45
0.03
5.06
1.5
0.93
-0.13
-0.15
-0.01
0.67

> <PUBCHEM_SHAPE_SELFOVERLAP>
632.638

> <PUBCHEM_SHAPE_VOLUME>
188

> <PUBCHEM_COORDINATE_TYPE>
2
5
10

$$$$
