62660
  -OEChem-11232109113D

 34 34  0     0  0  0  0  0  0999 V2000
    1.7488   -0.2993   -0.0794 O   0  0  0  0  0  0  0  0  0  0  0  0
    0.9983    1.8328    0.3990 O   0  0  0  0  0  0  0  0  0  0  0  0
    5.5121   -0.7066   -0.1844 C   0  0  0  0  0  0  0  0  0  0  0  0
    4.0157   -1.0483   -0.2667 C   0  0  0  0  0  0  0  0  0  0  0  0
    3.0992    0.1388    0.0045 C   0  0  0  0  0  0  0  0  0  0  0  0
    5.8490    0.3977   -1.1891 C   0  0  0  0  0  0  0  0  0  0  0  0
    5.9343   -0.2734    1.2202 C   0  0  0  0  0  0  0  0  0  0  0  0
    0.7998    0.6562    0.1409 C   0  0  0  0  0  0  0  0  0  0  0  0
   -3.0115    0.2389    0.0651 C   0  0  0  0  0  0  0  0  0  0  0  0
   -0.5295    0.0169    0.0141 C   0  0  0  0  0  0  0  0  0  0  0  0
   -1.6361    0.7560    0.1765 C   0  0  0  0  0  0  0  0  0  0  0  0
   -3.2367   -1.1223    0.1912 C   0  0  0  0  0  0  0  0  0  0  0  0
   -4.0528    1.1240   -0.1636 C   0  0  0  0  0  0  0  0  0  0  0  0
   -4.5386   -1.6120    0.0854 C   0  0  0  0  0  0  0  0  0  0  0  0
   -5.3545    0.6342   -0.2692 C   0  0  0  0  0  0  0  0  0  0  0  0
   -5.5974   -0.7337   -0.1447 C   0  0  0  0  0  0  0  0  0  0  0  0
    6.0777   -1.6075   -0.4524 H   0  0  0  0  0  0  0  0  0  0  0  0
    3.7815   -1.8544    0.4406 H   0  0  0  0  0  0  0  0  0  0  0  0
    3.7840   -1.4586   -1.2583 H   0  0  0  0  0  0  0  0  0  0  0  0
    3.2750    0.5441    1.0062 H   0  0  0  0  0  0  0  0  0  0  0  0
    3.2513    0.9285   -0.7381 H   0  0  0  0  0  0  0  0  0  0  0  0
    6.9357    0.5207   -1.2600 H   0  0  0  0  0  0  0  0  0  0  0  0
    5.4355    1.3687   -0.8990 H   0  0  0  0  0  0  0  0  0  0  0  0
    5.4810    0.1473   -2.1897 H   0  0  0  0  0  0  0  0  0  0  0  0
    5.4853    0.6809    1.5128 H   0  0  0  0  0  0  0  0  0  0  0  0
    7.0220   -0.1523    1.2696 H   0  0  0  0  0  0  0  0  0  0  0  0
    5.6496   -1.0277    1.9610 H   0  0  0  0  0  0  0  0  0  0  0  0
   -0.5452   -1.0382   -0.2324 H   0  0  0  0  0  0  0  0  0  0  0  0
   -1.5556    1.8183    0.3965 H   0  0  0  0  0  0  0  0  0  0  0  0
   -2.4473   -1.8395    0.3922 H   0  0  0  0  0  0  0  0  0  0  0  0
   -3.8796    2.1921   -0.2643 H   0  0  0  0  0  0  0  0  0  0  0  0
   -4.7291   -2.6764    0.1872 H   0  0  0  0  0  0  0  0  0  0  0  0
   -6.1792    1.3178   -0.4484 H   0  0  0  0  0  0  0  0  0  0  0  0
   -6.6112   -1.1148   -0.2257 H   0  0  0  0  0  0  0  0  0  0  0  0
  1  5  1  0  0  0  0
  1  8  1  0  0  0  0
  2  8  2  0  0  0  0
  3  4  1  0  0  0  0
  3  6  1  0  0  0  0
  3  7  1  0  0  0  0
  3 17  1  0  0  0  0
  4  5  1  0  0  0  0
  4 18  1  0  0  0  0
  4 19  1  0  0  0  0
  5 20  1  0  0  0  0
  5 21  1  0  0  0  0
  6 22  1  0  0  0  0
  6 23  1  0  0  0  0
  6 24  1  0  0  0  0
  7 25  1  0  0  0  0
  7 26  1  0  0  0  0
  7 27  1  0  0  0  0
  8 10  1  0  0  0  0
  9 11  1  0  0  0  0
  9 12  2  0  0  0  0
  9 13  1  0  0  0  0
 10 11  2  3  0  0  0
 10 28  1  0  0  0  0
 11 29  1  0  0  0  0
 12 14  1  0  0  0  0
 12 30  1  0  0  0  0
 13 15  2  0  0  0  0
 13 31  1  0  0  0  0
 14 16  2  0  0  0  0
 14 32  1  0  0  0  0
 15 16  1  0  0  0  0
 15 33  1  0  0  0  0
 16 34  1  0  0  0  0
M  END
> <PUBCHEM_COMPOUND_CID>
62660

> <PUBCHEM_CONFORMER_RMSD>
0.8

> <PUBCHEM_CONFORMER_DIVERSEORDER>
1
30
27
20
8
22
29
3
28
2
16
10
19
23
15
9
18
21
13
11
12
14
4
25
5
6
17
24
26
7

> <PUBCHEM_MMFF94_PARTIAL_CHARGES>
19
1 -0.43
10 -0.14
11 -0.18
12 -0.15
13 -0.15
14 -0.15
15 -0.15
16 -0.15
2 -0.57
28 0.15
29 0.15
30 0.15
31 0.15
32 0.15
33 0.15
34 0.15
5 0.28
8 0.71
9 0.03

> <PUBCHEM_EFFECTIVE_ROTOR_COUNT>
6

> <PUBCHEM_PHARMACOPHORE_FEATURES>
3
1 2 acceptor
3 3 6 7 hydrophobe
6 9 12 13 14 15 16 rings

> <PUBCHEM_HEAVY_ATOM_COUNT>
16

> <PUBCHEM_ATOM_DEF_STEREO_COUNT>
0

> <PUBCHEM_ATOM_UDEF_STEREO_COUNT>
0

> <PUBCHEM_BOND_DEF_STEREO_COUNT>
0

> <PUBCHEM_BOND_UDEF_STEREO_COUNT>
1

> <PUBCHEM_ISOTOPIC_ATOM_COUNT>
0

> <PUBCHEM_COMPONENT_COUNT>
1

> <PUBCHEM_CACTVS_TAUTO_COUNT>
1

> <PUBCHEM_CONFORMER_ID>
0000F4C400000001

> <PUBCHEM_MMFF94_ENERGY>
34.9493

> <PUBCHEM_FEATURE_SELFOVERLAP>
15.223

> <PUBCHEM_SHAPE_FINGERPRINT>
100836 57 9655576327087196522
10354089 29 11887952155671776742
10803635 8 17894340069319045047
10912923 1 18113903728297572320
10968037 39 18409451392585762887
11128504 68 16732987543693560620
11287383 113 18412544331980317976
11315181 36 18273217504000347297
12091667 2 17530687589005361137
12236239 1 17603586317912284870
12516196 113 18060136539893734104
12596602 18 14979954787206640694
12714333 28 15646773401038344838
12916748 109 11458424626940386150
13288520 33 18411983563933463069
13533116 47 14189582906159662878
13685833 64 18410859888767166243
13740256 8 18341051903750704907
1420 363 17704075092432809766
14251718 22 18260551129821436254
14251731 8 18410011027008989503
14251752 14 17385713665279009221
14251764 18 18341617010489839403
14252887 29 17203336580927194766
17834072 33 18335142011766829124
17834072 8 18335414661033996597
17834076 25 14707208816355297527
17844677 252 18201442484292918064
19489759 90 18408039594001945753
200 152 17989487416166802035
20374829 77 18334292071887633913
20621476 66 18338522911665832017
21150785 3 16081371899130571739
21267235 1 18336833078452748907
220451 1 18333737892315570394
2297311 6 18343308058935781741
23035841 295 18409449167655722418
23081809 10 17676210156560379044
23198884 109 16081087078521764089
23402539 116 17312820459367562853
23536379 177 17313103034045811564
23559900 14 18339917212383846513
239999 70 18059860558902927134
26918003 58 18060700593827622379
300161 21 17530960276357599994
3004659 81 18114184108342601838
3014965 18 11530747194785905256
335352 9 18411417311683318165
34797466 226 17845946212100681452
4214541 1 18410575072348207533
42788 4 18333732407742358684
4325135 7 18260552234303141574
4463277 17 18412263939061247572
5104073 3 18341053020669231457
542803 24 17313105245859004028
559249 180 18335135371984922139
6327066 14 17389369430543342805
67856867 119 18261396718846526580

> <PUBCHEM_SHAPE_MULTIPOLES>
317.53
16.71
1.35
0.82
10.29
0.02
-0.01
3.34
1.13
-1.01
-0.05
1.09
-0.02
-0.07

> <PUBCHEM_SHAPE_SELFOVERLAP>
639.423

> <PUBCHEM_SHAPE_VOLUME>
186.4

> <PUBCHEM_COORDINATE_TYPE>
2
5
10

$$$$
