62698
  -OEChem-11232109043D

 66 68  0     1  0  0  0  0  0999 V2000
   -0.8420   -0.8286    0.8448 O   0  0  0  0  0  0  0  0  0  0  0  0
    2.4836   -0.9757   -0.6826 O   0  0  0  0  0  0  0  0  0  0  0  0
   -2.7617    0.3969    0.3381 O   0  0  0  0  0  0  0  0  0  0  0  0
    3.8118    0.8487   -0.0900 O   0  0  0  0  0  0  0  0  0  0  0  0
   -5.3119    0.8689   -1.1330 O   0  0  0  0  0  0  0  0  0  0  0  0
    1.4922    1.6179   -1.4861 O   0  0  0  0  0  0  0  0  0  0  0  0
   -1.4256    1.5287   -1.8850 O   0  0  0  0  0  0  0  0  0  0  0  0
   -5.6323   -1.3955    1.6504 O   0  0  0  0  0  0  0  0  0  0  0  0
    4.7246   -2.6772   -0.3809 O   0  0  0  0  0  0  0  0  0  0  0  0
    7.2596   -1.2501   -0.8475 O   0  0  0  0  0  0  0  0  0  0  0  0
    7.3662    1.1673    0.7337 O   0  0  0  0  0  0  0  0  0  0  0  0
   -4.7956    2.1324    1.4241 O   0  0  0  0  0  0  0  0  0  0  0  0
    0.0288   -3.1831    1.9647 O   0  0  0  0  0  0  0  0  0  0  0  0
   -7.0038    2.2173   -0.2353 O   0  0  0  0  0  0  0  0  0  0  0  0
   -4.5432   -2.6694   -1.6447 O   0  0  0  0  0  0  0  0  0  0  0  0
    3.7413    3.3160    1.1199 O   0  0  0  0  0  0  0  0  0  0  0  0
    1.3212   -0.3541   -0.1407 C   0  0  1  0  0  0  0  0  0  0  0  0
    0.6510    0.4941   -1.2217 C   0  0  1  0  0  0  0  0  0  0  0  0
   -0.7243    0.9833   -0.7678 C   0  0  2  0  0  0  0  0  0  0  0  0
    0.3646   -1.4320    0.3746 C   0  0  1  0  0  0  0  0  0  0  0  0
   -1.5587   -0.1602   -0.1906 C   0  0  1  0  0  0  0  0  0  0  0  0
   -3.8457   -0.5337    0.2563 C   0  0  1  0  0  0  0  0  0  0  0  0
    3.6620   -0.5656    0.0103 C   0  0  2  0  0  0  0  0  0  0  0  0
   -4.7631   -0.2836    1.4604 C   0  0  1  0  0  0  0  0  0  0  0  0
   -4.5462   -0.3423   -1.1001 C   0  0  1  0  0  0  0  0  0  0  0  0
    4.8550   -1.2773   -0.6277 C   0  0  1  0  0  0  0  0  0  0  0  0
    6.1770   -0.7799   -0.0429 C   0  0  2  0  0  0  0  0  0  0  0  0
    6.2327    0.7477   -0.0213 C   0  0  1  0  0  0  0  0  0  0  0  0
   -5.6165    0.9732    1.2757 C   0  0  2  0  0  0  0  0  0  0  0  0
    4.9634    1.3286    0.6063 C   0  0  1  0  0  0  0  0  0  0  0  0
    0.9694   -2.2159    1.5351 C   0  0  0  0  0  0  0  0  0  0  0  0
   -6.2869    0.9917   -0.0995 C   0  0  2  0  0  0  0  0  0  0  0  0
   -5.3901   -1.5407   -1.5300 C   0  0  0  0  0  0  0  0  0  0  0  0
    4.9435    2.8521    0.5331 C   0  0  0  0  0  0  0  0  0  0  0  0
    1.5708    0.3067    0.7030 H   0  0  0  0  0  0  0  0  0  0  0  0
    0.5804   -0.0635   -2.1629 H   0  0  0  0  0  0  0  0  0  0  0  0
   -0.6215    1.7914   -0.0340 H   0  0  0  0  0  0  0  0  0  0  0  0
    0.1126   -2.1456   -0.4217 H   0  0  0  0  0  0  0  0  0  0  0  0
   -1.7907   -0.8765   -0.9911 H   0  0  0  0  0  0  0  0  0  0  0  0
   -3.4508   -1.5548    0.3408 H   0  0  0  0  0  0  0  0  0  0  0  0
    3.5629   -0.8562    1.0649 H   0  0  0  0  0  0  0  0  0  0  0  0
   -4.1551   -0.1773    2.3672 H   0  0  0  0  0  0  0  0  0  0  0  0
   -3.7767   -0.2084   -1.8694 H   0  0  0  0  0  0  0  0  0  0  0  0
    4.8425   -1.1456   -1.7161 H   0  0  0  0  0  0  0  0  0  0  0  0
    6.3411   -1.1912    0.9600 H   0  0  0  0  0  0  0  0  0  0  0  0
    6.3617    1.1262   -1.0427 H   0  0  0  0  0  0  0  0  0  0  0  0
   -6.3934    1.0324    2.0474 H   0  0  0  0  0  0  0  0  0  0  0  0
    4.8772    1.0387    1.6625 H   0  0  0  0  0  0  0  0  0  0  0  0
    1.1825   -1.5572    2.3835 H   0  0  0  0  0  0  0  0  0  0  0  0
    1.8859   -2.7334    1.2373 H   0  0  0  0  0  0  0  0  0  0  0  0
   -7.0189    0.1807   -0.1773 H   0  0  0  0  0  0  0  0  0  0  0  0
   -5.8587   -1.3442   -2.5005 H   0  0  0  0  0  0  0  0  0  0  0  0
   -6.1902   -1.7717   -0.8228 H   0  0  0  0  0  0  0  0  0  0  0  0
    1.5770    2.1327   -0.6656 H   0  0  0  0  0  0  0  0  0  0  0  0
   -1.5208    0.8282   -2.5527 H   0  0  0  0  0  0  0  0  0  0  0  0
    4.9589    3.1925   -0.5076 H   0  0  0  0  0  0  0  0  0  0  0  0
    5.7892    3.2914    1.0704 H   0  0  0  0  0  0  0  0  0  0  0  0
   -5.0781   -2.1799    1.8013 H   0  0  0  0  0  0  0  0  0  0  0  0
    4.7270   -2.8152    0.5817 H   0  0  0  0  0  0  0  0  0  0  0  0
    7.1325   -0.9150   -1.7514 H   0  0  0  0  0  0  0  0  0  0  0  0
    7.2546    0.8481    1.6455 H   0  0  0  0  0  0  0  0  0  0  0  0
   -4.4105    2.1066    2.3167 H   0  0  0  0  0  0  0  0  0  0  0  0
    0.4324   -3.6670    2.7053 H   0  0  0  0  0  0  0  0  0  0  0  0
   -7.7110    2.0640   -0.8846 H   0  0  0  0  0  0  0  0  0  0  0  0
   -5.0964   -3.4149   -1.9339 H   0  0  0  0  0  0  0  0  0  0  0  0
    3.7468    4.2863    1.0570 H   0  0  0  0  0  0  0  0  0  0  0  0
  1 20  1  0  0  0  0
  1 21  1  0  0  0  0
  2 17  1  0  0  0  0
  2 23  1  0  0  0  0
  3 21  1  0  0  0  0
  3 22  1  0  0  0  0
  4 23  1  0  0  0  0
  4 30  1  0  0  0  0
  5 25  1  0  0  0  0
  5 32  1  0  0  0  0
  6 18  1  0  0  0  0
  6 54  1  0  0  0  0
  7 19  1  0  0  0  0
  7 55  1  0  0  0  0
  8 24  1  0  0  0  0
  8 58  1  0  0  0  0
  9 26  1  0  0  0  0
  9 59  1  0  0  0  0
 10 27  1  0  0  0  0
 10 60  1  0  0  0  0
 11 28  1  0  0  0  0
 11 61  1  0  0  0  0
 12 29  1  0  0  0  0
 12 62  1  0  0  0  0
 13 31  1  0  0  0  0
 13 63  1  0  0  0  0
 14 32  1  0  0  0  0
 14 64  1  0  0  0  0
 15 33  1  0  0  0  0
 15 65  1  0  0  0  0
 16 34  1  0  0  0  0
 16 66  1  0  0  0  0
 17 18  1  0  0  0  0
 17 20  1  0  0  0  0
 17 35  1  0  0  0  0
 18 19  1  0  0  0  0
 18 36  1  0  0  0  0
 19 21  1  0  0  0  0
 19 37  1  0  0  0  0
 20 31  1  0  0  0  0
 20 38  1  0  0  0  0
 21 39  1  0  0  0  0
 22 24  1  0  0  0  0
 22 25  1  0  0  0  0
 22 40  1  0  0  0  0
 23 26  1  0  0  0  0
 23 41  1  0  0  0  0
 24 29  1  0  0  0  0
 24 42  1  0  0  0  0
 25 33  1  0  0  0  0
 25 43  1  0  0  0  0
 26 27  1  0  0  0  0
 26 44  1  0  0  0  0
 27 28  1  0  0  0  0
 27 45  1  0  0  0  0
 28 30  1  0  0  0  0
 28 46  1  0  0  0  0
 29 32  1  0  0  0  0
 29 47  1  0  0  0  0
 30 34  1  0  0  0  0
 30 48  1  0  0  0  0
 31 49  1  0  0  0  0
 31 50  1  0  0  0  0
 32 51  1  0  0  0  0
 33 52  1  0  0  0  0
 33 53  1  0  0  0  0
 34 56  1  0  0  0  0
 34 57  1  0  0  0  0
M  END
> <PUBCHEM_COMPOUND_CID>
62698

> <PUBCHEM_CONFORMER_RMSD>
1

> <PUBCHEM_CONFORMER_DIVERSEORDER>
1
24
248
260
264
71
187
226
95
56
105
209
241
153
113
192
182
28
247
203
116
13
88
178
265
30
90
115
67
134
54
276
31
271
10
139
233
196
86
120
270
72
183
25
167
124
166
215
189
77
27
131
228
202
148
47
92
230
186
229
145
171
222
188
162
50
168
243
117
157
253
234
224
141
81
101
198
159
76
138
41
152
143
18
125
190
135
64
257
102
242
35
175
69
108
46
137
149
17
118
177
232
98
176
111
107
7
214
191
2
268
122
170
210
58
87
204
266
244
217
173
151
84
133
103
89
206
36
63
130
132
83
59
97
201
150
231
19
9
235
34
221
158
127
38
219
267
237
205
163
49
165
40
104
184
181
155
79
80
254
262
45
85
142
258
21
16
20
126
15
4
272
73
236
129
227
238
42
239
6
78
259
249
91
140
23
146
274
136
195
246
12
197
256
220
154
8
52
169
39
174
213
261
99
75
199
245
119
43
121
61
225
252
33
96
94
207
164
22
106
100
273
255
263
161
112
48
44
251
269
179
3
160
147
65
57
110
200
114
26
172
250
156
218
51
53
128
14
275
70
208
216
212
11
185
93
223
55
240
5
193
29
32
82
180
62
74
60
37
66
68
144
211
194
123
109

> <PUBCHEM_MMFF94_PARTIAL_CHARGES>
45
1 -0.56
10 -0.68
11 -0.68
12 -0.68
13 -0.68
14 -0.68
15 -0.68
16 -0.68
17 0.28
18 0.28
19 0.28
2 -0.56
20 0.28
21 0.56
22 0.28
23 0.56
24 0.28
25 0.28
26 0.28
27 0.28
28 0.28
29 0.28
3 -0.56
30 0.28
31 0.28
32 0.56
33 0.28
34 0.28
4 -0.56
5 -0.56
54 0.4
55 0.4
58 0.4
59 0.4
6 -0.68
60 0.4
61 0.4
62 0.4
63 0.4
64 0.4
65 0.4
66 0.4
7 -0.68
8 -0.68
9 -0.68

> <PUBCHEM_EFFECTIVE_ROTOR_COUNT>
10.6

> <PUBCHEM_PHARMACOPHORE_FEATURES>
30
1 1 acceptor
1 10 acceptor
1 10 donor
1 11 acceptor
1 11 donor
1 12 acceptor
1 12 donor
1 13 acceptor
1 13 donor
1 14 acceptor
1 14 donor
1 15 acceptor
1 15 donor
1 16 acceptor
1 16 donor
1 2 acceptor
1 3 acceptor
1 4 acceptor
1 5 acceptor
1 6 acceptor
1 6 donor
1 7 acceptor
1 7 donor
1 8 acceptor
1 8 donor
1 9 acceptor
1 9 donor
6 1 17 18 19 20 21 rings
6 4 23 26 27 28 30 rings
6 5 22 24 25 29 32 rings

> <PUBCHEM_HEAVY_ATOM_COUNT>
34

> <PUBCHEM_ATOM_DEF_STEREO_COUNT>
13

> <PUBCHEM_ATOM_UDEF_STEREO_COUNT>
2

> <PUBCHEM_BOND_DEF_STEREO_COUNT>
0

> <PUBCHEM_BOND_UDEF_STEREO_COUNT>
0

> <PUBCHEM_ISOTOPIC_ATOM_COUNT>
0

> <PUBCHEM_COMPONENT_COUNT>
1

> <PUBCHEM_CACTVS_TAUTO_COUNT>
1

> <PUBCHEM_CONFORMER_ID>
0000F4EA00000001

> <PUBCHEM_MMFF94_ENERGY>
102.989

> <PUBCHEM_FEATURE_SELFOVERLAP>
152.481

> <PUBCHEM_SHAPE_FINGERPRINT>
10906281 52 18115037415096083006
11135926 11 17530678776044232595
11315181 36 16271923814455278835
11456790 92 18409164386450967528
12107698 1 18131351865391890096
12236239 1 18131067142881482862
12596602 18 18342739624657023427
13782708 43 18041555829067894038
14856354 85 16845287298052989981
15183329 4 17775567520145334738
20511986 3 18411971448073535189
21033648 29 18187638146118848696
22122407 14 17703240610558106608
23559900 14 18187653556898772022
23569943 247 18117269260244804826
23576562 1 14404316487160438961
24771293 8 18262233430500646172
2838139 119 18201156645692419736
4073 2 18408888472855894394
4169191 19 18042409204377737660
4760202 170 18271232838389897205
77296 10 18059856228789811678

> <PUBCHEM_SHAPE_MULTIPOLES>
605.8
19.69
2.86
1.56
3.52
0.13
0.09
4.42
0.48
1.37
0.7
-1.79
-0.36
0.29

> <PUBCHEM_SHAPE_SELFOVERLAP>
1251.137

> <PUBCHEM_SHAPE_VOLUME>
338.2

> <PUBCHEM_COORDINATE_TYPE>
2
5
10

$$$$
