62752
  -OEChem-11232109413D

 19 19  0     0  0  0  0  0  0999 V2000
   -0.1420    2.0460    0.1661 O   0  0  0  0  0  0  0  0  0  0  0  0
   -2.6056    0.5507   -0.2751 O   0  0  0  0  0  0  0  0  0  0  0  0
    0.1609   -1.6451    0.1606 C   0  0  0  0  0  0  0  0  0  0  0  0
    0.6801   -0.2392    0.2713 C   0  0  0  0  0  0  0  0  0  0  0  0
   -1.3376   -1.5004   -0.0924 C   0  0  0  0  0  0  0  0  0  0  0  0
    2.1289   -0.0025    0.5203 C   0  0  0  0  0  0  0  0  0  0  0  0
   -0.2683    0.6947    0.1244 C   0  0  0  0  0  0  0  0  0  0  0  0
   -1.5360   -0.0130   -0.1019 C   0  0  0  0  0  0  0  0  0  0  0  0
    2.9197    0.1088   -0.7733 C   0  0  0  0  0  0  0  0  0  0  0  0
    0.6424   -2.1797   -0.6651 H   0  0  0  0  0  0  0  0  0  0  0  0
    0.3442   -2.2056    1.0838 H   0  0  0  0  0  0  0  0  0  0  0  0
   -1.9253   -1.9532    0.7111 H   0  0  0  0  0  0  0  0  0  0  0  0
   -1.6233   -1.9240   -1.0592 H   0  0  0  0  0  0  0  0  0  0  0  0
    2.2625    0.9219    1.0956 H   0  0  0  0  0  0  0  0  0  0  0  0
    2.5387   -0.8074    1.1414 H   0  0  0  0  0  0  0  0  0  0  0  0
    3.9774    0.2873   -0.5545 H   0  0  0  0  0  0  0  0  0  0  0  0
    2.5590    0.9383   -1.3908 H   0  0  0  0  0  0  0  0  0  0  0  0
    2.8485   -0.8114   -1.3630 H   0  0  0  0  0  0  0  0  0  0  0  0
   -1.0273    2.4223    0.0208 H   0  0  0  0  0  0  0  0  0  0  0  0
  1  7  1  0  0  0  0
  1 19  1  0  0  0  0
  2  8  2  0  0  0  0
  3  4  1  0  0  0  0
  3  5  1  0  0  0  0
  3 10  1  0  0  0  0
  3 11  1  0  0  0  0
  4  6  1  0  0  0  0
  4  7  2  0  0  0  0
  5  8  1  0  0  0  0
  5 12  1  0  0  0  0
  5 13  1  0  0  0  0
  6  9  1  0  0  0  0
  6 14  1  0  0  0  0
  6 15  1  0  0  0  0
  7  8  1  0  0  0  0
  9 16  1  0  0  0  0
  9 17  1  0  0  0  0
  9 18  1  0  0  0  0
M  END
> <PUBCHEM_COMPOUND_CID>
62752

> <PUBCHEM_CONFORMER_RMSD>
0.4

> <PUBCHEM_CONFORMER_DIVERSEORDER>
1
2
3
4

> <PUBCHEM_MMFF94_PARTIAL_CHARGES>
9
1 -0.53
19 0.45
2 -0.57
3 0.14
4 -0.28
5 0.06
6 0.14
7 0.09
8 0.49

> <PUBCHEM_EFFECTIVE_ROTOR_COUNT>
1.4

> <PUBCHEM_PHARMACOPHORE_FEATURES>
4
1 1 donor
1 2 acceptor
1 9 hydrophobe
5 3 4 5 7 8 rings

> <PUBCHEM_HEAVY_ATOM_COUNT>
9

> <PUBCHEM_ATOM_DEF_STEREO_COUNT>
0

> <PUBCHEM_ATOM_UDEF_STEREO_COUNT>
0

> <PUBCHEM_BOND_DEF_STEREO_COUNT>
0

> <PUBCHEM_BOND_UDEF_STEREO_COUNT>
0

> <PUBCHEM_ISOTOPIC_ATOM_COUNT>
0

> <PUBCHEM_COMPONENT_COUNT>
1

> <PUBCHEM_CACTVS_TAUTO_COUNT>
21

> <PUBCHEM_CONFORMER_ID>
0000F52000000001

> <PUBCHEM_MMFF94_ENERGY>
4.659

> <PUBCHEM_FEATURE_SELFOVERLAP>
20.297

> <PUBCHEM_SHAPE_FINGERPRINT>
12423570 1 11442199309362790730
12897270 3 18413395332436730478
15310529 11 16805316691207183552
16714656 1 18411421708743112462
16945 1 18413384324024081115
18185500 45 18335692858222874362
21040471 1 18338507556423980123
23235685 24 18409446959979027277
23552423 10 18116994596910988766
2748010 2 18194955477289181929
29004967 10 16200433589385821610
5084963 1 18127970806742815810

> <PUBCHEM_SHAPE_MULTIPOLES>
173.48
3.27
1.62
0.72
1.31
0.09
-0.03
0.2
-0.69
-0.5
0.08
0.27
-0.02
-0.01

> <PUBCHEM_SHAPE_SELFOVERLAP>
350.451

> <PUBCHEM_SHAPE_VOLUME>
103.8

> <PUBCHEM_COORDINATE_TYPE>
2
5
10

$$$$
