62835
  -OEChem-11232109143D

 17 17  0     1  0  0  0  0  0999 V2000
   -0.1403   -1.4692   -0.3178 O   0  0  0  0  0  0  0  0  0  0  0  0
   -1.3415    1.8606    0.2868 O   0  0  0  0  0  0  0  0  0  0  0  0
   -2.3342   -0.8972    0.0869 O   0  0  0  0  0  0  0  0  0  0  0  0
    1.1068   -0.7524   -0.3884 C   0  0  1  0  0  0  0  0  0  0  0  0
    0.7144    0.6616   -0.1505 C   0  0  0  0  0  0  0  0  0  0  0  0
   -0.5999    0.7471    0.0469 C   0  0  0  0  0  0  0  0  0  0  0  0
    2.0525   -1.3211    0.6581 C   0  0  0  0  0  0  0  0  0  0  0  0
    1.7022    1.7726   -0.1746 C   0  0  0  0  0  0  0  0  0  0  0  0
   -1.1599   -0.6020   -0.0475 C   0  0  0  0  0  0  0  0  0  0  0  0
    1.5186   -0.8856   -1.3946 H   0  0  0  0  0  0  0  0  0  0  0  0
    2.2062   -2.3922    0.4871 H   0  0  0  0  0  0  0  0  0  0  0  0
    3.0266   -0.8230    0.6328 H   0  0  0  0  0  0  0  0  0  0  0  0
    1.6364   -1.2230    1.6674 H   0  0  0  0  0  0  0  0  0  0  0  0
    2.2344    1.7869   -1.1309 H   0  0  0  0  0  0  0  0  0  0  0  0
    2.4353    1.6543    0.6290 H   0  0  0  0  0  0  0  0  0  0  0  0
    1.2210    2.7474   -0.0459 H   0  0  0  0  0  0  0  0  0  0  0  0
   -2.2673    1.5761    0.3790 H   0  0  0  0  0  0  0  0  0  0  0  0
  1  4  1  0  0  0  0
  1  9  1  0  0  0  0
  2  6  1  0  0  0  0
  2 17  1  0  0  0  0
  3  9  2  0  0  0  0
  4  5  1  0  0  0  0
  4  7  1  0  0  0  0
  4 10  1  0  0  0  0
  5  6  2  0  0  0  0
  5  8  1  0  0  0  0
  6  9  1  0  0  0  0
  7 11  1  0  0  0  0
  7 12  1  0  0  0  0
  7 13  1  0  0  0  0
  8 14  1  0  0  0  0
  8 15  1  0  0  0  0
  8 16  1  0  0  0  0
M  END
> <PUBCHEM_COMPOUND_CID>
62835

> <PUBCHEM_CONFORMER_RMSD>
0.4

> <PUBCHEM_CONFORMER_DIVERSEORDER>
2
1

> <PUBCHEM_MMFF94_PARTIAL_CHARGES>
9
1 -0.43
17 0.45
2 -0.53
3 -0.57
4 0.42
5 -0.28
6 0.09
8 0.14
9 0.71

> <PUBCHEM_EFFECTIVE_ROTOR_COUNT>
0.4

> <PUBCHEM_PHARMACOPHORE_FEATURES>
3
1 2 donor
1 3 acceptor
5 1 4 5 6 9 rings

> <PUBCHEM_HEAVY_ATOM_COUNT>
9

> <PUBCHEM_ATOM_DEF_STEREO_COUNT>
0

> <PUBCHEM_ATOM_UDEF_STEREO_COUNT>
1

> <PUBCHEM_BOND_DEF_STEREO_COUNT>
0

> <PUBCHEM_BOND_UDEF_STEREO_COUNT>
0

> <PUBCHEM_ISOTOPIC_ATOM_COUNT>
0

> <PUBCHEM_COMPONENT_COUNT>
1

> <PUBCHEM_CACTVS_TAUTO_COUNT>
2

> <PUBCHEM_CONFORMER_ID>
0000F57300000002

> <PUBCHEM_MMFF94_ENERGY>
6.4099

> <PUBCHEM_FEATURE_SELFOVERLAP>
15.223

> <PUBCHEM_SHAPE_FINGERPRINT>
137420 1 12831486101399850226
16945 1 18410575123507838070
18185500 45 18052253183040190494
21040471 1 17834679674720714964
23552423 10 18261679254500161310
2748010 2 18339359669466930292
29004967 10 17970915685262678619
5084963 1 17917717876631803538

> <PUBCHEM_SHAPE_MULTIPOLES>
167.61
2.5
1.98
0.68
0.3
0.56
-0.01
-0.36
-0.28
-0.4
-0.09
-0.14
-0.06
-0.3

> <PUBCHEM_SHAPE_SELFOVERLAP>
343.873

> <PUBCHEM_SHAPE_VOLUME>
99.3

> <PUBCHEM_COORDINATE_TYPE>
2
5
10

$$$$
