62876
  -OEChem-11232109273D

 38 38  0     1  0  0  0  0  0999 V2000
    2.3899   -1.4234    0.0622 O   0  0  0  0  0  0  0  0  0  0  0  0
    0.0502   -1.5542   -0.2379 O   0  0  0  0  0  0  0  0  0  0  0  0
    3.6721    0.5941   -0.0840 C   0  0  0  0  0  0  0  0  0  0  0  0
    2.3585   -0.0337    0.3599 C   0  0  0  0  0  0  0  0  0  0  0  0
    1.1820   -2.0900    0.4520 C   0  0  1  0  0  0  0  0  0  0  0  0
    3.7138    2.0887    0.2212 C   0  0  0  0  0  0  0  0  0  0  0  0
   -2.3164   -1.5967   -0.6931 C   0  0  0  0  0  0  0  0  0  0  0  0
   -1.1618   -2.2248    0.0798 C   0  0  0  0  0  0  0  0  0  0  0  0
   -2.5238   -0.1449   -0.3357 C   0  0  0  0  0  0  0  0  0  0  0  0
    1.3503   -3.5573    0.0787 C   0  0  0  0  0  0  0  0  0  0  0  0
    5.0440    2.7032   -0.1843 C   0  0  0  0  0  0  0  0  0  0  0  0
   -3.3817    0.1836    0.7022 C   0  0  0  0  0  0  0  0  0  0  0  0
   -1.8531    0.8338   -1.0519 C   0  0  0  0  0  0  0  0  0  0  0  0
   -3.5738    1.5252    1.0324 C   0  0  0  0  0  0  0  0  0  0  0  0
   -2.0450    2.1754   -0.7218 C   0  0  0  0  0  0  0  0  0  0  0  0
   -2.9053    2.5210    0.3203 C   0  0  0  0  0  0  0  0  0  0  0  0
    4.5043    0.0816    0.4148 H   0  0  0  0  0  0  0  0  0  0  0  0
    3.8145    0.4212   -1.1581 H   0  0  0  0  0  0  0  0  0  0  0  0
    1.5271    0.4461   -0.1687 H   0  0  0  0  0  0  0  0  0  0  0  0
    2.2186    0.1048    1.4383 H   0  0  0  0  0  0  0  0  0  0  0  0
    1.0517   -1.9833    1.5359 H   0  0  0  0  0  0  0  0  0  0  0  0
    3.5550    2.2550    1.2930 H   0  0  0  0  0  0  0  0  0  0  0  0
    2.9027    2.6000   -0.3102 H   0  0  0  0  0  0  0  0  0  0  0  0
   -2.1241   -1.6719   -1.7713 H   0  0  0  0  0  0  0  0  0  0  0  0
   -3.2393   -2.1594   -0.5062 H   0  0  0  0  0  0  0  0  0  0  0  0
   -1.3422   -2.1673    1.1598 H   0  0  0  0  0  0  0  0  0  0  0  0
   -1.1200   -3.2761   -0.2187 H   0  0  0  0  0  0  0  0  0  0  0  0
    1.2720   -3.6988   -1.0052 H   0  0  0  0  0  0  0  0  0  0  0  0
    0.6048   -4.1969    0.5599 H   0  0  0  0  0  0  0  0  0  0  0  0
    2.3377   -3.9210    0.3844 H   0  0  0  0  0  0  0  0  0  0  0  0
    5.8733    2.2362    0.3565 H   0  0  0  0  0  0  0  0  0  0  0  0
    5.2212    2.5813   -1.2577 H   0  0  0  0  0  0  0  0  0  0  0  0
    5.0514    3.7741    0.0418 H   0  0  0  0  0  0  0  0  0  0  0  0
   -3.9049   -0.5851    1.2637 H   0  0  0  0  0  0  0  0  0  0  0  0
   -1.1807    0.5761   -1.8651 H   0  0  0  0  0  0  0  0  0  0  0  0
   -4.2431    1.7944    1.8442 H   0  0  0  0  0  0  0  0  0  0  0  0
   -1.5241    2.9508   -1.2758 H   0  0  0  0  0  0  0  0  0  0  0  0
   -3.0544    3.5656    0.5775 H   0  0  0  0  0  0  0  0  0  0  0  0
  1  4  1  0  0  0  0
  1  5  1  0  0  0  0
  2  5  1  0  0  0  0
  2  8  1  0  0  0  0
  3  4  1  0  0  0  0
  3  6  1  0  0  0  0
  3 17  1  0  0  0  0
  3 18  1  0  0  0  0
  4 19  1  0  0  0  0
  4 20  1  0  0  0  0
  5 10  1  0  0  0  0
  5 21  1  0  0  0  0
  6 11  1  0  0  0  0
  6 22  1  0  0  0  0
  6 23  1  0  0  0  0
  7  8  1  0  0  0  0
  7  9  1  0  0  0  0
  7 24  1  0  0  0  0
  7 25  1  0  0  0  0
  8 26  1  0  0  0  0
  8 27  1  0  0  0  0
  9 12  2  0  0  0  0
  9 13  1  0  0  0  0
 10 28  1  0  0  0  0
 10 29  1  0  0  0  0
 10 30  1  0  0  0  0
 11 31  1  0  0  0  0
 11 32  1  0  0  0  0
 11 33  1  0  0  0  0
 12 14  1  0  0  0  0
 12 34  1  0  0  0  0
 13 15  2  0  0  0  0
 13 35  1  0  0  0  0
 14 16  2  0  0  0  0
 14 36  1  0  0  0  0
 15 16  1  0  0  0  0
 15 37  1  0  0  0  0
 16 38  1  0  0  0  0
M  END
> <PUBCHEM_COMPOUND_CID>
62876

> <PUBCHEM_CONFORMER_RMSD>
0.8

> <PUBCHEM_CONFORMER_DIVERSEORDER>
1
147
139
69
94
150
113
166
142
76
80
40
10
105
126
61
24
8
27
67
64
57
149
90
164
23
58
46
172
34
156
163
73
44
35
4
158
117
121
91
26
29
171
131
135
112
33
103
129
99
167
140
2
114
31
151
9
143
63
115
123
42
162
148
50
97
132
59
82
11
45
137
53
127
49
38
118
133
125
165
3
37
70
169
101
141
155
146
153
47
20
88
72
17
21
96
107
102
48
154
157
130
60
7
168
36
83
119
92
95
111
144
116
87
32
30
22
52
75
110
152
124
89
159
81
98
5
78
71
106
65
134
54
109
6
161
138
13
120
41
108
19
66
85
79
25
128
74
122
104
14
51
16
145
18
170
15
160
12
86
28
62
56
93
136
55
43
77
100
68
39
84

> <PUBCHEM_MMFF94_PARTIAL_CHARGES>
17
1 -0.56
12 -0.15
13 -0.15
14 -0.15
15 -0.15
16 -0.15
2 -0.56
34 0.15
35 0.15
36 0.15
37 0.15
38 0.15
4 0.28
5 0.56
7 0.14
8 0.28
9 -0.14

> <PUBCHEM_EFFECTIVE_ROTOR_COUNT>
8

> <PUBCHEM_PHARMACOPHORE_FEATURES>
4
1 1 acceptor
1 11 hydrophobe
1 2 acceptor
6 9 12 13 14 15 16 rings

> <PUBCHEM_HEAVY_ATOM_COUNT>
16

> <PUBCHEM_ATOM_DEF_STEREO_COUNT>
0

> <PUBCHEM_ATOM_UDEF_STEREO_COUNT>
1

> <PUBCHEM_BOND_DEF_STEREO_COUNT>
0

> <PUBCHEM_BOND_UDEF_STEREO_COUNT>
0

> <PUBCHEM_ISOTOPIC_ATOM_COUNT>
0

> <PUBCHEM_COMPONENT_COUNT>
1

> <PUBCHEM_CACTVS_TAUTO_COUNT>
1

> <PUBCHEM_CONFORMER_ID>
0000F59C00000001

> <PUBCHEM_MMFF94_ENERGY>
29.7042

> <PUBCHEM_FEATURE_SELFOVERLAP>
20.335

> <PUBCHEM_SHAPE_FINGERPRINT>
10498660 4 18336818792404981637
10670039 82 18190750915477578188
10764073 3 11562419619635375133
10871710 139 18268145542723709383
11615756 256 18412543210809276344
13897977 13 18339366271295829361
14026960 21 18193843639558817209
14123250 116 18272651250948257769
14123255 52 18411139121470306848
14251764 75 18199762357622554593
14508225 48 16902139982056614550
15342168 16 18341052917706170513
17834072 32 18411136896450718952
20621476 13 17976528417060699020
20671657 1 18266744580131753598
21524375 3 18339633538357649274
21864079 5 18410570669690003672
22182937 141 18339931531551291960
27216 239 18334579044654650793
5048184 11 18411700976128375128
5939293 188 17689710866137180702
8199 26 18411701006329666176

> <PUBCHEM_SHAPE_MULTIPOLES>
317.53
8.31
4.09
0.89
8.01
1.55
0.02
-8.13
-0.74
1.84
-0.08
-0.61
-0.2
-0.57

> <PUBCHEM_SHAPE_SELFOVERLAP>
622.854

> <PUBCHEM_SHAPE_VOLUME>
190.5

> <PUBCHEM_COORDINATE_TYPE>
2
5
10

$$$$
