62907
  -OEChem-11232109143D

 40 40  0     1  0  0  0  0  0999 V2000
    1.1124   -0.0964   -1.1793 O   0  0  0  0  0  0  0  0  0  0  0  0
    2.2539   -0.4670    0.8153 N   0  0  0  0  0  0  0  0  0  0  0  0
   -1.1220    0.9468    0.2624 C   0  0  2  0  0  0  0  0  0  0  0  0
   -0.1034   -0.0299    0.8785 C   0  0  1  0  0  0  0  0  0  0  0  0
   -1.8264    0.3583   -0.9678 C   0  0  0  0  0  0  0  0  0  0  0  0
   -1.4286   -1.9893   -0.1019 C   0  0  2  0  0  0  0  0  0  0  0  0
   -0.7206   -1.4105    1.1336 C   0  0  0  0  0  0  0  0  0  0  0  0
   -2.4554   -0.9986   -0.6613 C   0  0  0  0  0  0  0  0  0  0  0  0
   -0.5048    2.3083   -0.0635 C   0  0  0  0  0  0  0  0  0  0  0  0
    1.1376   -0.1898    0.0451 C   0  0  0  0  0  0  0  0  0  0  0  0
   -2.0966   -3.3212    0.2379 C   0  0  0  0  0  0  0  0  0  0  0  0
   -1.5784    3.2796   -0.5456 C   0  0  0  0  0  0  0  0  0  0  0  0
    0.2230    2.8700    1.1545 C   0  0  0  0  0  0  0  0  0  0  0  0
    3.5670   -0.6873    0.2535 C   0  0  0  0  0  0  0  0  0  0  0  0
    3.5423   -0.5731   -1.2613 C   0  0  0  0  0  0  0  0  0  0  0  0
   -1.9005    1.1036    1.0250 H   0  0  0  0  0  0  0  0  0  0  0  0
    0.1916    0.3551    1.8635 H   0  0  0  0  0  0  0  0  0  0  0  0
   -1.1506    0.2696   -1.8241 H   0  0  0  0  0  0  0  0  0  0  0  0
   -2.6440    1.0106   -1.2929 H   0  0  0  0  0  0  0  0  0  0  0  0
   -0.6782   -2.1860   -0.8784 H   0  0  0  0  0  0  0  0  0  0  0  0
    0.0463   -2.1165    1.4770 H   0  0  0  0  0  0  0  0  0  0  0  0
   -1.4467   -1.3204    1.9528 H   0  0  0  0  0  0  0  0  0  0  0  0
   -3.2733   -0.8633    0.0583 H   0  0  0  0  0  0  0  0  0  0  0  0
   -2.9047   -1.4029   -1.5764 H   0  0  0  0  0  0  0  0  0  0  0  0
    0.2270    2.2226   -0.8752 H   0  0  0  0  0  0  0  0  0  0  0  0
   -1.3592   -4.0424    0.6061 H   0  0  0  0  0  0  0  0  0  0  0  0
   -2.8641   -3.1973    1.0095 H   0  0  0  0  0  0  0  0  0  0  0  0
   -2.5739   -3.7531   -0.6480 H   0  0  0  0  0  0  0  0  0  0  0  0
   -2.4266    3.3212    0.1462 H   0  0  0  0  0  0  0  0  0  0  0  0
   -1.1714    4.2940   -0.6286 H   0  0  0  0  0  0  0  0  0  0  0  0
   -1.9512    3.0188   -1.5405 H   0  0  0  0  0  0  0  0  0  0  0  0
   -0.4208    2.8755    2.0407 H   0  0  0  0  0  0  0  0  0  0  0  0
    0.5366    3.9042    0.9710 H   0  0  0  0  0  0  0  0  0  0  0  0
    1.1348    2.3138    1.3892 H   0  0  0  0  0  0  0  0  0  0  0  0
    2.1630   -0.5325    1.8247 H   0  0  0  0  0  0  0  0  0  0  0  0
    4.2435    0.0534    0.6904 H   0  0  0  0  0  0  0  0  0  0  0  0
    3.8985   -1.6826    0.5647 H   0  0  0  0  0  0  0  0  0  0  0  0
    2.9280   -1.3441   -1.7377 H   0  0  0  0  0  0  0  0  0  0  0  0
    3.2805    0.4314   -1.6095 H   0  0  0  0  0  0  0  0  0  0  0  0
    4.5611   -0.7488   -1.6295 H   0  0  0  0  0  0  0  0  0  0  0  0
  1 10  2  0  0  0  0
  2 10  1  0  0  0  0
  2 14  1  0  0  0  0
  2 35  1  0  0  0  0
  3  4  1  0  0  0  0
  3  5  1  0  0  0  0
  3  9  1  0  0  0  0
  3 16  1  0  0  0  0
  4  7  1  0  0  0  0
  4 10  1  0  0  0  0
  4 17  1  0  0  0  0
  5  8  1  0  0  0  0
  5 18  1  0  0  0  0
  5 19  1  0  0  0  0
  6  7  1  0  0  0  0
  6  8  1  0  0  0  0
  6 11  1  0  0  0  0
  6 20  1  0  0  0  0
  7 21  1  0  0  0  0
  7 22  1  0  0  0  0
  8 23  1  0  0  0  0
  8 24  1  0  0  0  0
  9 12  1  0  0  0  0
  9 13  1  0  0  0  0
  9 25  1  0  0  0  0
 11 26  1  0  0  0  0
 11 27  1  0  0  0  0
 11 28  1  0  0  0  0
 12 29  1  0  0  0  0
 12 30  1  0  0  0  0
 12 31  1  0  0  0  0
 13 32  1  0  0  0  0
 13 33  1  0  0  0  0
 13 34  1  0  0  0  0
 14 15  1  0  0  0  0
 14 36  1  0  0  0  0
 14 37  1  0  0  0  0
 15 38  1  0  0  0  0
 15 39  1  0  0  0  0
 15 40  1  0  0  0  0
M  END
> <PUBCHEM_COMPOUND_CID>
62907

> <PUBCHEM_CONFORMER_RMSD>
0.6

> <PUBCHEM_CONFORMER_DIVERSEORDER>
1
45
62
61
58
22
36
41
50
66
60
64
40
71
69
20
57
38
55
47
18
16
53
63
17
54
44
37
56
65
46
67
5
70
35
73
32
51
19
26
21
10
68
23
9
74
48
8
42
59
27
11
39
34
72
4
28
7
52
33
31
43
24
49
14
2
15
13
30
25
29
3
6
12

> <PUBCHEM_MMFF94_PARTIAL_CHARGES>
6
1 -0.57
10 0.57
14 0.3
2 -0.73
35 0.37
4 0.06

> <PUBCHEM_EFFECTIVE_ROTOR_COUNT>
5.2

> <PUBCHEM_PHARMACOPHORE_FEATURES>
4
1 1 acceptor
1 2 donor
3 9 12 13 hydrophobe
6 3 4 5 6 7 8 rings

> <PUBCHEM_HEAVY_ATOM_COUNT>
15

> <PUBCHEM_ATOM_DEF_STEREO_COUNT>
0

> <PUBCHEM_ATOM_UDEF_STEREO_COUNT>
3

> <PUBCHEM_BOND_DEF_STEREO_COUNT>
0

> <PUBCHEM_BOND_UDEF_STEREO_COUNT>
0

> <PUBCHEM_ISOTOPIC_ATOM_COUNT>
0

> <PUBCHEM_COMPONENT_COUNT>
1

> <PUBCHEM_CACTVS_TAUTO_COUNT>
2

> <PUBCHEM_CONFORMER_ID>
0000F5BB00000001

> <PUBCHEM_MMFF94_ENERGY>
33.869

> <PUBCHEM_FEATURE_SELFOVERLAP>
20.297

> <PUBCHEM_SHAPE_FINGERPRINT>
1 1 17328867590993461708
11680986 33 18051403265368996459
12138202 78 17688302808680887943
12138202 97 18126004858493320780
12423570 1 9941827736758896557
12716758 59 18125999373788422026
13024252 1 17822020778296280707
14817 1 11352386204595738904
15502708 68 17043169940008285467
15906896 17 18042985193471424515
16945 1 18336535045422213114
17134986 127 17542788612201831156
19837323 101 18122633759836891816
19868273 325 18339929306689647566
20510252 161 18268990899482552288
20645476 183 18045231435803091908
20645477 70 17474942607519041239
20711985 344 18342176626710096370
21524375 3 17756430352871302480
21665056 4 17979088084667624414
23402539 116 18270103639720252975
23419403 2 17324597508970155212
23557571 272 18273214184428561520
23559900 14 18339629084924462778
23598294 1 18337390418271358440
2748010 2 18122044666675963499
305870 269 17115509541757416512
3250762 1 17977089477723732429
430814 3 17759524365495874701
53812653 8 18190736428003852657
7364860 26 17620758718169509571
81228 2 18341899566964898072
81539 233 17468481417431709957
84936 31 17339847778012425530

> <PUBCHEM_SHAPE_MULTIPOLES>
297.84
4.17
3.67
1.18
4.58
1.89
-0.04
-2.69
-1.17
-2.92
0.42
0.29
0.09
0.5

> <PUBCHEM_SHAPE_SELFOVERLAP>
585.722

> <PUBCHEM_SHAPE_VOLUME>
177.8

> <PUBCHEM_COORDINATE_TYPE>
2
5
10

$$$$
