62902
  -OEChem-11232109243D

 26 25  0     1  0  0  0  0  0999 V2000
   -1.4467   -0.0938    0.3913 O   0  0  0  0  0  0  0  0  0  0  0  0
   -0.5001    0.6918   -1.5605 O   0  0  0  0  0  0  0  0  0  0  0  0
    0.6586    0.9611    0.5571 C   0  0  1  0  0  0  0  0  0  0  0  0
    1.9781    0.2975    0.1382 C   0  0  0  0  0  0  0  0  0  0  0  0
    1.9186   -1.2303    0.2274 C   0  0  0  0  0  0  0  0  0  0  0  0
    0.7647    2.4833    0.4962 C   0  0  0  0  0  0  0  0  0  0  0  0
   -0.4759    0.5161   -0.3489 C   0  0  0  0  0  0  0  0  0  0  0  0
    3.2446   -1.8612   -0.1683 C   0  0  0  0  0  0  0  0  0  0  0  0
   -2.5822   -0.5586   -0.3451 C   0  0  0  0  0  0  0  0  0  0  0  0
   -3.5598   -1.2058    0.6127 C   0  0  0  0  0  0  0  0  0  0  0  0
    0.4281    0.6728    1.5905 H   0  0  0  0  0  0  0  0  0  0  0  0
    2.2323    0.5865   -0.8899 H   0  0  0  0  0  0  0  0  0  0  0  0
    2.7873    0.6660    0.7812 H   0  0  0  0  0  0  0  0  0  0  0  0
    1.1357   -1.6244   -0.4299 H   0  0  0  0  0  0  0  0  0  0  0  0
    1.6671   -1.5325    1.2506 H   0  0  0  0  0  0  0  0  0  0  0  0
    1.5404    2.8467    1.1781 H   0  0  0  0  0  0  0  0  0  0  0  0
    1.0107    2.8286   -0.5141 H   0  0  0  0  0  0  0  0  0  0  0  0
   -0.1843    2.9503    0.7819 H   0  0  0  0  0  0  0  0  0  0  0  0
    3.5092   -1.6041   -1.1989 H   0  0  0  0  0  0  0  0  0  0  0  0
    4.0519   -1.5227    0.4889 H   0  0  0  0  0  0  0  0  0  0  0  0
    3.1823   -2.9515   -0.0954 H   0  0  0  0  0  0  0  0  0  0  0  0
   -3.0625    0.2878   -0.8485 H   0  0  0  0  0  0  0  0  0  0  0  0
   -2.2574   -1.2905   -1.0931 H   0  0  0  0  0  0  0  0  0  0  0  0
   -4.4421   -1.5737    0.0817 H   0  0  0  0  0  0  0  0  0  0  0  0
   -3.0880   -2.0432    1.1373 H   0  0  0  0  0  0  0  0  0  0  0  0
   -3.8799   -0.4910    1.3780 H   0  0  0  0  0  0  0  0  0  0  0  0
  1  7  1  0  0  0  0
  1  9  1  0  0  0  0
  2  7  2  0  0  0  0
  3  4  1  0  0  0  0
  3  6  1  0  0  0  0
  3  7  1  0  0  0  0
  3 11  1  0  0  0  0
  4  5  1  0  0  0  0
  4 12  1  0  0  0  0
  4 13  1  0  0  0  0
  5  8  1  0  0  0  0
  5 14  1  0  0  0  0
  5 15  1  0  0  0  0
  6 16  1  0  0  0  0
  6 17  1  0  0  0  0
  6 18  1  0  0  0  0
  8 19  1  0  0  0  0
  8 20  1  0  0  0  0
  8 21  1  0  0  0  0
  9 10  1  0  0  0  0
  9 22  1  0  0  0  0
  9 23  1  0  0  0  0
 10 24  1  0  0  0  0
 10 25  1  0  0  0  0
 10 26  1  0  0  0  0
M  END
> <PUBCHEM_COMPOUND_CID>
62902

> <PUBCHEM_CONFORMER_RMSD>
0.6

> <PUBCHEM_CONFORMER_DIVERSEORDER>
5
92
112
108
71
129
124
49
1
113
119
60
13
39
128
68
114
85
84
101
21
28
34
117
36
127
40
45
6
22
105
15
107
87
123
50
89
35
66
4
122
58
46
63
118
48
99
29
56
53
11
88
120
26
125
72
115
130
93
23
96
103
31
33
8
19
69
83
2
24
27
74
70
7
55
20
67
16
126
121
95
75
104
9
76
94
18
47
52
102
86
106
17
97
54
59
30
38
90
110
25
41
14
111
79
57
65
51
78
116
12
61
77
82
32
62
98
42
44
80
73
3
81
43
91
10
64
37
100
109

> <PUBCHEM_MMFF94_PARTIAL_CHARGES>
5
1 -0.43
2 -0.57
3 0.06
7 0.66
9 0.28

> <PUBCHEM_EFFECTIVE_ROTOR_COUNT>
5

> <PUBCHEM_PHARMACOPHORE_FEATURES>
3
1 2 acceptor
1 6 hydrophobe
1 8 hydrophobe

> <PUBCHEM_HEAVY_ATOM_COUNT>
10

> <PUBCHEM_ATOM_DEF_STEREO_COUNT>
0

> <PUBCHEM_ATOM_UDEF_STEREO_COUNT>
1

> <PUBCHEM_BOND_DEF_STEREO_COUNT>
0

> <PUBCHEM_BOND_UDEF_STEREO_COUNT>
0

> <PUBCHEM_ISOTOPIC_ATOM_COUNT>
0

> <PUBCHEM_COMPONENT_COUNT>
1

> <PUBCHEM_CACTVS_TAUTO_COUNT>
1

> <PUBCHEM_CONFORMER_ID>
0000F5B600000005

> <PUBCHEM_MMFF94_ENERGY>
4.6539

> <PUBCHEM_FEATURE_SELFOVERLAP>
15.223

> <PUBCHEM_SHAPE_FINGERPRINT>
12932764 1 18127977601676451277
14128692 85 18114753641889862526
14390081 3 11095898063887773203
20645477 70 18265603450698309663
20711978 78 18267849748004429685
20711985 344 17906999699961314872
20871998 184 17772746066213886582
20871998 22 18343023255259111994
21061003 4 18272359846207378490
23500284 5 18194121807031311386
25610 137 18411983538332496760
29004967 10 18340756105147953912
528862 383 18200306761811199636
58734985 102 17023477441836264734
59915604 170 15502959487838745838

> <PUBCHEM_SHAPE_MULTIPOLES>
194.06
4.88
2.14
0.93
2.32
0.76
0.25
-4.14
-0.6
-1.39
-0.32
0.25
0.14
0.42

> <PUBCHEM_SHAPE_SELFOVERLAP>
353.845

> <PUBCHEM_SHAPE_VOLUME>
125

> <PUBCHEM_COORDINATE_TYPE>
2
5
10

$$$$
