62901
  -OEChem-11232109003D

 36 36  0     0  0  0  0  0  0999 V2000
   -1.6090   -0.0986    0.0103 O   0  0  0  0  0  0  0  0  0  0  0  0
   -5.1457   -0.5211   -0.0304 O   0  0  0  0  0  0  0  0  0  0  0  0
   -2.8296   -2.0398   -0.0263 O   0  0  0  0  0  0  0  0  0  0  0  0
    3.2910    0.3187    0.0884 C   0  0  0  0  0  0  0  0  0  0  0  0
    4.6533   -0.3800    0.0550 C   0  0  0  0  0  0  0  0  0  0  0  0
    2.1083   -0.6501    0.0226 C   0  0  0  0  0  0  0  0  0  0  0  0
    5.8358    0.5912    0.0465 C   0  0  0  0  0  0  0  0  0  0  0  0
    0.7773    0.1002    0.0356 C   0  0  0  0  0  0  0  0  0  0  0  0
    7.1654   -0.1571   -0.0603 C   0  0  0  0  0  0  0  0  0  0  0  0
   -0.4069   -0.8560    0.0120 C   0  0  0  0  0  0  0  0  0  0  0  0
    8.3429    0.8036   -0.1078 C   0  0  0  0  0  0  0  0  0  0  0  0
   -2.7806   -0.8142   -0.0101 C   0  0  0  0  0  0  0  0  0  0  0  0
   -3.9447    0.0731   -0.0107 C   0  0  0  0  0  0  0  0  0  0  0  0
   -4.0139    1.4201    0.0059 C   0  0  0  0  0  0  0  0  0  0  0  0
   -5.3987    1.7120   -0.0044 C   0  0  0  0  0  0  0  0  0  0  0  0
   -6.0447    0.4980   -0.0263 C   0  0  0  0  0  0  0  0  0  0  0  0
    3.2198    0.9197    1.0035 H   0  0  0  0  0  0  0  0  0  0  0  0
    3.2284    1.0180   -0.7548 H   0  0  0  0  0  0  0  0  0  0  0  0
    4.7034   -1.0144   -0.8389 H   0  0  0  0  0  0  0  0  0  0  0  0
    4.7367   -1.0477    0.9214 H   0  0  0  0  0  0  0  0  0  0  0  0
    2.1542   -1.3385    0.8749 H   0  0  0  0  0  0  0  0  0  0  0  0
    2.1801   -1.2567   -0.8882 H   0  0  0  0  0  0  0  0  0  0  0  0
    5.8211    1.1959    0.9611 H   0  0  0  0  0  0  0  0  0  0  0  0
    5.7347    1.2815   -0.7997 H   0  0  0  0  0  0  0  0  0  0  0  0
    0.7153    0.7783   -0.8247 H   0  0  0  0  0  0  0  0  0  0  0  0
    0.7087    0.7381    0.9257 H   0  0  0  0  0  0  0  0  0  0  0  0
    7.2830   -0.8306    0.7965 H   0  0  0  0  0  0  0  0  0  0  0  0
    7.1733   -0.7771   -0.9643 H   0  0  0  0  0  0  0  0  0  0  0  0
   -0.3841   -1.5029    0.8969 H   0  0  0  0  0  0  0  0  0  0  0  0
   -0.3676   -1.4789   -0.8893 H   0  0  0  0  0  0  0  0  0  0  0  0
    8.3829    1.4196    0.7962 H   0  0  0  0  0  0  0  0  0  0  0  0
    8.2720    1.4688   -0.9744 H   0  0  0  0  0  0  0  0  0  0  0  0
    9.2828    0.2478   -0.1823 H   0  0  0  0  0  0  0  0  0  0  0  0
   -3.1981    2.1286    0.0232 H   0  0  0  0  0  0  0  0  0  0  0  0
   -5.8674    2.6855    0.0033 H   0  0  0  0  0  0  0  0  0  0  0  0
   -7.0842    0.2043   -0.0404 H   0  0  0  0  0  0  0  0  0  0  0  0
  1 10  1  0  0  0  0
  1 12  1  0  0  0  0
  2 13  1  0  0  0  0
  2 16  1  0  0  0  0
  3 12  2  0  0  0  0
  4  5  1  0  0  0  0
  4  6  1  0  0  0  0
  4 17  1  0  0  0  0
  4 18  1  0  0  0  0
  5  7  1  0  0  0  0
  5 19  1  0  0  0  0
  5 20  1  0  0  0  0
  6  8  1  0  0  0  0
  6 21  1  0  0  0  0
  6 22  1  0  0  0  0
  7  9  1  0  0  0  0
  7 23  1  0  0  0  0
  7 24  1  0  0  0  0
  8 10  1  0  0  0  0
  8 25  1  0  0  0  0
  8 26  1  0  0  0  0
  9 11  1  0  0  0  0
  9 27  1  0  0  0  0
  9 28  1  0  0  0  0
 10 29  1  0  0  0  0
 10 30  1  0  0  0  0
 11 31  1  0  0  0  0
 11 32  1  0  0  0  0
 11 33  1  0  0  0  0
 12 13  1  0  0  0  0
 13 14  2  0  0  0  0
 14 15  1  0  0  0  0
 14 34  1  0  0  0  0
 15 16  2  0  0  0  0
 15 35  1  0  0  0  0
 16 36  1  0  0  0  0
M  END
> <PUBCHEM_COMPOUND_CID>
62901

> <PUBCHEM_CONFORMER_RMSD>
1

> <PUBCHEM_CONFORMER_DIVERSEORDER>
1
84
172
48
134
26
150
15
14
122
101
3
85
53
164
173
158
19
156
28
160
146
121
4
2
55
129
62
100
27
87
141
92
89
111
31
96
43
7
117
67
50
77
25
136
12
65
181
155
81
44
5
45
9
161
139
145
6
73
149
135
17
78
33
99
116
59
47
105
22
42
106
109
130
113
124
61
107
74
175
182
97
137
167
140
170
177
10
147
185
91
13
37
52
153
29
131
166
110
69
163
154
63
95
132
34
86
36
11
151
76
119
115
93
142
57
35
118
126
38
180
46
80
168
143
49
112
40
159
128
79
104
179
8
54
162
98
58
186
64
71
183
88
72
75
103
32
108
157
18
174
125
23
60
30
41
176
114
56
51
70
39
127
90
82
184
16
144
152
21
171
123
120
148
178
66
68
20
24
169
165
138
102
133
83
94

> <PUBCHEM_MMFF94_PARTIAL_CHARGES>
12
1 -0.43
10 0.28
12 0.81
13 0.05
14 -0.15
15 -0.15
16 -0.01
2 -0.28
3 -0.57
34 0.15
35 0.15
36 0.15

> <PUBCHEM_EFFECTIVE_ROTOR_COUNT>
9

> <PUBCHEM_PHARMACOPHORE_FEATURES>
6
1 11 hydrophobe
1 2 acceptor
1 3 acceptor
3 4 6 8 hydrophobe
3 5 7 9 hydrophobe
5 2 13 14 15 16 rings

> <PUBCHEM_HEAVY_ATOM_COUNT>
16

> <PUBCHEM_ATOM_DEF_STEREO_COUNT>
0

> <PUBCHEM_ATOM_UDEF_STEREO_COUNT>
0

> <PUBCHEM_BOND_DEF_STEREO_COUNT>
0

> <PUBCHEM_BOND_UDEF_STEREO_COUNT>
0

> <PUBCHEM_ISOTOPIC_ATOM_COUNT>
0

> <PUBCHEM_COMPONENT_COUNT>
1

> <PUBCHEM_CACTVS_TAUTO_COUNT>
1

> <PUBCHEM_CONFORMER_ID>
0000F5B500000001

> <PUBCHEM_MMFF94_ENERGY>
5.7169

> <PUBCHEM_FEATURE_SELFOVERLAP>
30.464

> <PUBCHEM_SHAPE_FINGERPRINT>
10411042 1 17978510064507885223
106641 1 17676213472718269529
10730089 173 18411419492429601272
10968037 39 18131913758471730281
11315181 36 18113338635107769937
12091667 2 18412545431212533179
125118 31 18411136974957811056
12616971 3 14490480819899291050
13533116 47 14476969935481402670
13668630 136 13470685953805203556
13964095 4 18342459240517557732
14123256 10 12463571781426964524
1420 363 11674878883893548560
14251752 14 18413387618955054760
14251764 18 18114178644769486138
14251764 46 18260266352051798151
14729087 3 18412259528377812952
14933364 13 18410856568931500056
15048467 5 18408040706530370052
155225 1 18337953395124308869
155225 5 18126004853893710777
15716309 27 11025799803833627040
17093844 174 18261109703155703978
17834072 8 17775566442477841096
17834076 25 18410573980867039846
20281389 69 18259982665573404324
20621476 66 18334580139913424500
20621476 8 18260266318414740022
20645477 56 18411698781863693355
20645477 70 16988008184693569158
21130983 4 17821731650537148764
21150785 3 16056876940400519932
21315763 28 18410291436839104916
22224240 67 15430037677919900784
23402539 116 18341890818480538910
23521765 1 18341895194651195650
23536379 177 18407759227427529898
23559900 14 18060412538649817232
28498 318 18131072598756116654
300161 21 18411134727935125290
33532 11 10015597095363258132
3545911 37 18342739615302275618
4073 2 18041285452350077826
42788 4 18411136939842951418
4463277 17 18409729573960971232
5758199 1 17603586344594634130
57583515 80 14333410051383425814
59682541 35 12613046006525489180
59755656 520 17385441037877387162
8209 1 18411136939399846260

> <PUBCHEM_SHAPE_MULTIPOLES>
311.66
21.98
1.35
0.6
31.41
0.04
0
-7.51
0.57
-1.75
0.01
0.07
-0.02
-0.05

> <PUBCHEM_SHAPE_SELFOVERLAP>
612.452

> <PUBCHEM_SHAPE_VOLUME>
187.9

> <PUBCHEM_COORDINATE_TYPE>
2
5
10

$$$$
