62908
  -OEChem-11232108543D

 24 23  0     1  0  0  0  0  0999 V2000
    0.0802    1.9680   -0.0630 O   0  0  0  0  0  0  0  0  0  0  0  0
   -1.8539   -1.0243   -0.3341 O   0  0  0  0  0  0  0  0  0  0  0  0
   -2.3581    1.0532    0.5306 O   0  0  0  0  0  0  0  0  0  0  0  0
    2.3284    0.0001    0.1312 C   0  0  0  0  0  0  0  0  0  0  0  0
    0.8423   -0.2555    0.4552 C   0  0  0  0  0  0  0  0  0  0  0  0
   -0.1408    0.5960   -0.3540 C   0  0  1  0  0  0  0  0  0  0  0  0
    2.6545   -0.2617   -1.3396 C   0  0  0  0  0  0  0  0  0  0  0  0
    3.2111   -0.8795    1.0207 C   0  0  0  0  0  0  0  0  0  0  0  0
   -1.5743    0.2656    0.0166 C   0  0  0  0  0  0  0  0  0  0  0  0
   -3.1894   -1.4619   -0.0635 C   0  0  0  0  0  0  0  0  0  0  0  0
    2.5668    1.0474    0.3546 H   0  0  0  0  0  0  0  0  0  0  0  0
    0.6848   -0.0624    1.5253 H   0  0  0  0  0  0  0  0  0  0  0  0
    0.6222   -1.3197    0.3004 H   0  0  0  0  0  0  0  0  0  0  0  0
   -0.0333    0.4577   -1.4335 H   0  0  0  0  0  0  0  0  0  0  0  0
    2.3541   -1.2712   -1.6398 H   0  0  0  0  0  0  0  0  0  0  0  0
    2.1505    0.4553   -1.9945 H   0  0  0  0  0  0  0  0  0  0  0  0
    3.7301   -0.1616   -1.5223 H   0  0  0  0  0  0  0  0  0  0  0  0
    3.0290   -1.9435    0.8347 H   0  0  0  0  0  0  0  0  0  0  0  0
    4.2718   -0.6798    0.8354 H   0  0  0  0  0  0  0  0  0  0  0  0
    3.0156   -0.6815    2.0799 H   0  0  0  0  0  0  0  0  0  0  0  0
    0.0353    2.0847    0.9015 H   0  0  0  0  0  0  0  0  0  0  0  0
   -3.3941   -1.4113    1.0102 H   0  0  0  0  0  0  0  0  0  0  0  0
   -3.2790   -2.5016   -0.3892 H   0  0  0  0  0  0  0  0  0  0  0  0
   -3.9074   -0.8553   -0.6235 H   0  0  0  0  0  0  0  0  0  0  0  0
  1  6  1  0  0  0  0
  1 21  1  0  0  0  0
  2  9  1  0  0  0  0
  2 10  1  0  0  0  0
  3  9  2  0  0  0  0
  4  5  1  0  0  0  0
  4  7  1  0  0  0  0
  4  8  1  0  0  0  0
  4 11  1  0  0  0  0
  5  6  1  0  0  0  0
  5 12  1  0  0  0  0
  5 13  1  0  0  0  0
  6  9  1  0  0  0  0
  6 14  1  0  0  0  0
  7 15  1  0  0  0  0
  7 16  1  0  0  0  0
  7 17  1  0  0  0  0
  8 18  1  0  0  0  0
  8 19  1  0  0  0  0
  8 20  1  0  0  0  0
 10 22  1  0  0  0  0
 10 23  1  0  0  0  0
 10 24  1  0  0  0  0
M  END
> <PUBCHEM_COMPOUND_CID>
62908

> <PUBCHEM_CONFORMER_RMSD>
0.6

> <PUBCHEM_CONFORMER_DIVERSEORDER>
2
6
7
1
4
5
3
8

> <PUBCHEM_MMFF94_PARTIAL_CHARGES>
7
1 -0.68
10 0.28
2 -0.43
21 0.4
3 -0.57
6 0.34
9 0.66

> <PUBCHEM_EFFECTIVE_ROTOR_COUNT>
4

> <PUBCHEM_PHARMACOPHORE_FEATURES>
4
1 1 acceptor
1 1 donor
1 3 acceptor
3 4 7 8 hydrophobe

> <PUBCHEM_HEAVY_ATOM_COUNT>
10

> <PUBCHEM_ATOM_DEF_STEREO_COUNT>
0

> <PUBCHEM_ATOM_UDEF_STEREO_COUNT>
1

> <PUBCHEM_BOND_DEF_STEREO_COUNT>
0

> <PUBCHEM_BOND_UDEF_STEREO_COUNT>
0

> <PUBCHEM_ISOTOPIC_ATOM_COUNT>
0

> <PUBCHEM_COMPONENT_COUNT>
1

> <PUBCHEM_CACTVS_TAUTO_COUNT>
1

> <PUBCHEM_CONFORMER_ID>
0000F5BC00000002

> <PUBCHEM_MMFF94_ENERGY>
9.2585

> <PUBCHEM_FEATURE_SELFOVERLAP>
20.305

> <PUBCHEM_SHAPE_FINGERPRINT>
10857977 72 18202839963518482312
12932741 1 17346319254477326228
12932764 1 18113905931241281212
14128692 85 18337962301772767629
14390081 3 11386359370237703439
18186145 218 13262397743519184294
20645464 45 17489016072548102298
20711983 138 17273988934384903050
20715346 28 17203610371758974228
20871998 184 18202842145451708663
23552423 10 18189340241336259653
29004967 10 16845569803674112338
3248919 1 17846494803424290576

> <PUBCHEM_SHAPE_MULTIPOLES>
188.19
5.23
1.44
0.97
0.09
0.31
0.16
-2.35
-0.2
0.79
-0.09
-0.78
-0.12
-0.48

> <PUBCHEM_SHAPE_SELFOVERLAP>
348.159

> <PUBCHEM_SHAPE_VOLUME>
119.7

> <PUBCHEM_COORDINATE_TYPE>
2
5
10

$$$$
