6365696
  -OEChem-11232109223D

 52 51  0     0  0  0  0  0  0999 V2000
   -0.6140    2.2575    0.2678 O   0  0  0  0  0  0  0  0  0  0  0  0
    0.8218    3.9374   -0.3933 O   0  0  0  0  0  0  0  0  0  0  0  0
    3.1256   -0.5405    0.5485 C   0  0  0  0  0  0  0  0  0  0  0  0
    2.7004    0.9292    0.5329 C   0  0  0  0  0  0  0  0  0  0  0  0
    4.0930   -0.8518   -0.5947 C   0  0  0  0  0  0  0  0  0  0  0  0
    1.7059    1.2312    1.6584 C   0  0  0  0  0  0  0  0  0  0  0  0
    4.4919   -2.3272   -0.5994 C   0  0  0  0  0  0  0  0  0  0  0  0
    1.2406    2.6872    1.6511 C   0  0  0  0  0  0  0  0  0  0  0  0
    5.4270   -2.6479   -1.7545 C   0  0  0  0  0  0  0  0  0  0  0  0
    0.4855    3.0653    0.3959 C   0  0  0  0  0  0  0  0  0  0  0  0
   -3.8356   -0.6190   -1.3757 C   0  0  0  0  0  0  0  0  0  0  0  0
   -2.6213    0.2850   -1.4152 C   0  0  0  0  0  0  0  0  0  0  0  0
   -3.5876   -1.9564   -0.6657 C   0  0  0  0  0  0  0  0  0  0  0  0
   -1.4117    2.4739   -0.8885 C   0  0  0  0  0  0  0  0  0  0  0  0
   -2.5574    1.5129   -0.8641 C   0  0  0  0  0  0  0  0  0  0  0  0
   -3.1565   -1.7808    0.7641 C   0  0  0  0  0  0  0  0  0  0  0  0
   -1.4367   -0.2661   -2.1670 C   0  0  0  0  0  0  0  0  0  0  0  0
   -2.0613   -2.2778    1.3690 C   0  0  0  0  0  0  0  0  0  0  0  0
   -1.0063   -3.1161    0.7050 C   0  0  0  0  0  0  0  0  0  0  0  0
   -1.8034   -1.9960    2.8254 C   0  0  0  0  0  0  0  0  0  0  0  0
    3.6005   -0.7768    1.5084 H   0  0  0  0  0  0  0  0  0  0  0  0
    2.2381   -1.1789    0.4605 H   0  0  0  0  0  0  0  0  0  0  0  0
    3.5831    1.5711    0.6398 H   0  0  0  0  0  0  0  0  0  0  0  0
    2.2477    1.1597   -0.4388 H   0  0  0  0  0  0  0  0  0  0  0  0
    4.9897   -0.2275   -0.4991 H   0  0  0  0  0  0  0  0  0  0  0  0
    3.6226   -0.5971   -1.5523 H   0  0  0  0  0  0  0  0  0  0  0  0
    0.8422    0.5604    1.5737 H   0  0  0  0  0  0  0  0  0  0  0  0
    2.1782    1.0188    2.6251 H   0  0  0  0  0  0  0  0  0  0  0  0
    3.5967   -2.9551   -0.6784 H   0  0  0  0  0  0  0  0  0  0  0  0
    4.9848   -2.5825    0.3458 H   0  0  0  0  0  0  0  0  0  0  0  0
    0.5888    2.8849    2.5095 H   0  0  0  0  0  0  0  0  0  0  0  0
    2.1029    3.3576    1.7443 H   0  0  0  0  0  0  0  0  0  0  0  0
    6.3471   -2.0585   -1.6894 H   0  0  0  0  0  0  0  0  0  0  0  0
    4.9497   -2.4354   -2.7164 H   0  0  0  0  0  0  0  0  0  0  0  0
    5.7005   -3.7076   -1.7378 H   0  0  0  0  0  0  0  0  0  0  0  0
   -4.6701   -0.1013   -0.8848 H   0  0  0  0  0  0  0  0  0  0  0  0
   -4.1646   -0.8148   -2.4040 H   0  0  0  0  0  0  0  0  0  0  0  0
   -2.8885   -2.5602   -1.2489 H   0  0  0  0  0  0  0  0  0  0  0  0
   -4.5301   -2.5187   -0.6610 H   0  0  0  0  0  0  0  0  0  0  0  0
   -0.8081    2.3928   -1.7973 H   0  0  0  0  0  0  0  0  0  0  0  0
   -1.8170    3.4931   -0.8617 H   0  0  0  0  0  0  0  0  0  0  0  0
   -3.4343    1.8665   -0.3237 H   0  0  0  0  0  0  0  0  0  0  0  0
   -3.8465   -1.1910    1.3673 H   0  0  0  0  0  0  0  0  0  0  0  0
   -1.7275   -0.5002   -3.1968 H   0  0  0  0  0  0  0  0  0  0  0  0
   -1.0761   -1.1861   -1.6980 H   0  0  0  0  0  0  0  0  0  0  0  0
   -0.5748    0.4008   -2.2210 H   0  0  0  0  0  0  0  0  0  0  0  0
   -0.8859   -4.0620    1.2440 H   0  0  0  0  0  0  0  0  0  0  0  0
   -1.2275   -3.3674   -0.3333 H   0  0  0  0  0  0  0  0  0  0  0  0
   -0.0464   -2.5892    0.7192 H   0  0  0  0  0  0  0  0  0  0  0  0
   -0.8507   -1.4695    2.9458 H   0  0  0  0  0  0  0  0  0  0  0  0
   -2.5843   -1.3746    3.2762 H   0  0  0  0  0  0  0  0  0  0  0  0
   -1.7575   -2.9328    3.3905 H   0  0  0  0  0  0  0  0  0  0  0  0
  1 10  1  0  0  0  0
  1 14  1  0  0  0  0
  2 10  2  0  0  0  0
  3  4  1  0  0  0  0
  3  5  1  0  0  0  0
  3 21  1  0  0  0  0
  3 22  1  0  0  0  0
  4  6  1  0  0  0  0
  4 23  1  0  0  0  0
  4 24  1  0  0  0  0
  5  7  1  0  0  0  0
  5 25  1  0  0  0  0
  5 26  1  0  0  0  0
  6  8  1  0  0  0  0
  6 27  1  0  0  0  0
  6 28  1  0  0  0  0
  7  9  1  0  0  0  0
  7 29  1  0  0  0  0
  7 30  1  0  0  0  0
  8 10  1  0  0  0  0
  8 31  1  0  0  0  0
  8 32  1  0  0  0  0
  9 33  1  0  0  0  0
  9 34  1  0  0  0  0
  9 35  1  0  0  0  0
 11 12  1  0  0  0  0
 11 13  1  0  0  0  0
 11 36  1  0  0  0  0
 11 37  1  0  0  0  0
 12 15  2  0  0  0  0
 12 17  1  0  0  0  0
 13 16  1  0  0  0  0
 13 38  1  0  0  0  0
 13 39  1  0  0  0  0
 14 15  1  0  0  0  0
 14 40  1  0  0  0  0
 14 41  1  0  0  0  0
 15 42  1  0  0  0  0
 16 18  2  0  0  0  0
 16 43  1  0  0  0  0
 17 44  1  0  0  0  0
 17 45  1  0  0  0  0
 17 46  1  0  0  0  0
 18 19  1  0  0  0  0
 18 20  1  0  0  0  0
 19 47  1  0  0  0  0
 19 48  1  0  0  0  0
 19 49  1  0  0  0  0
 20 50  1  0  0  0  0
 20 51  1  0  0  0  0
 20 52  1  0  0  0  0
M  END
> <PUBCHEM_COMPOUND_CID>
6365696

> <PUBCHEM_CONFORMER_RMSD>
1.2

> <PUBCHEM_CONFORMER_DIVERSEORDER>
1
59
109
26
10
170
134
152
189
142
159
99
47
138
140
75
97
197
32
214
12
21
42
84
88
101
202
102
44
71
91
192
31
137
37
167
7
33
65
208
76
174
212
93
28
2
103
49
23
171
70
216
96
191
114
38
135
133
209
106
166
62
92
187
136
118
168
169
157
108
48
213
116
125
104
56
89
207
183
24
79
35
198
60
29
66
129
127
57
46
124
122
121
73
147
34
5
18
112
94
195
74
100
61
90
218
67
115
190
19
105
43
68
78
158
123
39
132
69
210
176
119
126
220
217
175
179
164
180
36
205
80
194
150
55
50
95
139
162
25
51
200
173
196
22
153
113
128
110
52
219
72
107
13
82
58
156
27
85
185
20
184
141
77
149
131
15
16
111
201
83
143
211
145
206
154
54
146
41
120
186
155
87
53
9
6
203
30
215
14
45
181
63
11
161
151
193
172
8
182
204
4
40
117
165
177
188
98
199
3
148
160
81
144
17
86
64
130
178
163

> <PUBCHEM_MMFF94_PARTIAL_CHARGES>
16
1 -0.43
10 0.66
11 0.14
12 -0.28
13 0.14
14 0.42
15 -0.29
16 -0.29
17 0.14
18 -0.28
19 0.14
2 -0.57
20 0.14
42 0.15
43 0.15
8 0.06

> <PUBCHEM_EFFECTIVE_ROTOR_COUNT>
12

> <PUBCHEM_PHARMACOPHORE_FEATURES>
7
1 17 hydrophobe
1 2 acceptor
1 9 hydrophobe
3 18 19 20 hydrophobe
3 3 5 7 hydrophobe
3 4 6 8 hydrophobe
4 11 12 13 16 hydrophobe

> <PUBCHEM_HEAVY_ATOM_COUNT>
20

> <PUBCHEM_ATOM_DEF_STEREO_COUNT>
0

> <PUBCHEM_ATOM_UDEF_STEREO_COUNT>
0

> <PUBCHEM_BOND_DEF_STEREO_COUNT>
1

> <PUBCHEM_BOND_UDEF_STEREO_COUNT>
0

> <PUBCHEM_ISOTOPIC_ATOM_COUNT>
0

> <PUBCHEM_COMPONENT_COUNT>
1

> <PUBCHEM_CACTVS_TAUTO_COUNT>
1

> <PUBCHEM_CONFORMER_ID>
0061220000000001

> <PUBCHEM_MMFF94_ENERGY>
10.4156

> <PUBCHEM_FEATURE_SELFOVERLAP>
35.558

> <PUBCHEM_SHAPE_FINGERPRINT>
107951 10 17832714469463963805
11211813 140 16669642201276800066
11488393 25 18118691156713056600
12156800 1 17329209711293585713
12712778 12 18117815747904689002
12717326 25 14831363243361882854
12788726 201 18050847715454439218
14114206 34 18048013204537614004
14114207 22 15550536257721073095
14114211 68 17460030683019916963
14251740 79 18121224173573058998
14251757 17 18408039598624389618
14251757 5 18264498278271722782
14932701 244 14636868779702207794
15322534 239 17619076027694022054
15635459 17 17974555090246650129
19930381 70 18267002033583503823
20603629 256 17202750622828798112
23428019 142 17971203521593415842
484985 159 17058655053810193830
5282940 2 17111004842655484522
5283178 26 18339096985025296427
5365585 94 18269841921883572558
57307002 85 18189043356718420672
7987 15 18044380654194709611
9862886 166 18336262345966067034

> <PUBCHEM_SHAPE_MULTIPOLES>
399.85
8.45
4.82
2.24
9.84
2.44
0.64
-8.64
-4.36
1.12
0.86
-0.78
-0.92
3.26

> <PUBCHEM_SHAPE_SELFOVERLAP>
748.66

> <PUBCHEM_SHAPE_VOLUME>
249.7

> <PUBCHEM_COORDINATE_TYPE>
2
5
10

$$$$
