6365994
  -OEChem-11232108583D

 30 29  0     1  0  0  0  0  0999 V2000
    0.0209    0.2818    0.0853 O   0  0  0  0  0  0  0  0  0  0  0  0
    1.5140    0.6346   -1.6375 O   0  0  0  0  0  0  0  0  0  0  0  0
    2.3170    0.2005    0.6174 C   0  0  1  0  0  0  0  0  0  0  0  0
    3.2096   -1.0093    0.3050 C   0  0  0  0  0  0  0  0  0  0  0  0
    3.1487    1.4751    0.7316 C   0  0  0  0  0  0  0  0  0  0  0  0
    1.2664    0.4098   -0.4598 C   0  0  0  0  0  0  0  0  0  0  0  0
    2.4205   -2.3090    0.2110 C   0  0  0  0  0  0  0  0  0  0  0  0
   -1.0700    0.4288   -0.8292 C   0  0  0  0  0  0  0  0  0  0  0  0
   -2.3684    0.2627   -0.0867 C   0  0  0  0  0  0  0  0  0  0  0  0
   -2.5918    1.2522    1.0288 C   0  0  0  0  0  0  0  0  0  0  0  0
   -3.2863   -0.6908   -0.3361 C   0  0  0  0  0  0  0  0  0  0  0  0
   -4.5805   -0.9365    0.3700 C   0  0  0  0  0  0  0  0  0  0  0  0
    1.8154    0.0322    1.5790 H   0  0  0  0  0  0  0  0  0  0  0  0
    3.7425   -0.8537   -0.6411 H   0  0  0  0  0  0  0  0  0  0  0  0
    3.9702   -1.1133    1.0882 H   0  0  0  0  0  0  0  0  0  0  0  0
    2.5093    2.3390    0.9444 H   0  0  0  0  0  0  0  0  0  0  0  0
    3.8825    1.3900    1.5399 H   0  0  0  0  0  0  0  0  0  0  0  0
    3.6896    1.6867   -0.1975 H   0  0  0  0  0  0  0  0  0  0  0  0
    1.8621   -2.4957    1.1338 H   0  0  0  0  0  0  0  0  0  0  0  0
    3.1020   -3.1507    0.0515 H   0  0  0  0  0  0  0  0  0  0  0  0
    1.7130   -2.2915   -0.6236 H   0  0  0  0  0  0  0  0  0  0  0  0
   -0.9779   -0.3258   -1.6196 H   0  0  0  0  0  0  0  0  0  0  0  0
   -1.0343    1.4234   -1.2898 H   0  0  0  0  0  0  0  0  0  0  0  0
   -2.0420    0.9455    1.9244 H   0  0  0  0  0  0  0  0  0  0  0  0
   -2.2286    2.2424    0.7302 H   0  0  0  0  0  0  0  0  0  0  0  0
   -3.6437    1.3890    1.2916 H   0  0  0  0  0  0  0  0  0  0  0  0
   -3.0841   -1.3799   -1.1546 H   0  0  0  0  0  0  0  0  0  0  0  0
   -5.4149   -0.5805   -0.2415 H   0  0  0  0  0  0  0  0  0  0  0  0
   -4.7089   -2.0136    0.5219 H   0  0  0  0  0  0  0  0  0  0  0  0
   -4.6397   -0.4723    1.3567 H   0  0  0  0  0  0  0  0  0  0  0  0
  1  6  1  0  0  0  0
  1  8  1  0  0  0  0
  2  6  2  0  0  0  0
  3  4  1  0  0  0  0
  3  5  1  0  0  0  0
  3  6  1  0  0  0  0
  3 13  1  0  0  0  0
  4  7  1  0  0  0  0
  4 14  1  0  0  0  0
  4 15  1  0  0  0  0
  5 16  1  0  0  0  0
  5 17  1  0  0  0  0
  5 18  1  0  0  0  0
  7 19  1  0  0  0  0
  7 20  1  0  0  0  0
  7 21  1  0  0  0  0
  8  9  1  0  0  0  0
  8 22  1  0  0  0  0
  8 23  1  0  0  0  0
  9 10  1  0  0  0  0
  9 11  2  0  0  0  0
 10 24  1  0  0  0  0
 10 25  1  0  0  0  0
 10 26  1  0  0  0  0
 11 12  1  0  0  0  0
 11 27  1  0  0  0  0
 12 28  1  0  0  0  0
 12 29  1  0  0  0  0
 12 30  1  0  0  0  0
M  END
> <PUBCHEM_COMPOUND_CID>
6365994

> <PUBCHEM_CONFORMER_RMSD>
0.8

> <PUBCHEM_CONFORMER_DIVERSEORDER>
3
520
74
23
150
505
219
231
178
418
58
568
195
204
62
154
373
476
508
162
38
275
296
13
564
166
12
73
239
330
33
94
386
379
125
151
441
261
407
461
442
137
277
70
215
428
148
331
135
268
471
114
563
85
46
472
251
34
130
439
27
380
384
45
71
361
7
11
169
100
453
335
210
391
314
187
584
355
347
336
1
104
9
111
499
424
6
133
117
2
201
285
103
26
10
83
445
515
5
4
319
321
79
21
420
24
168
32
109
102
15

> <PUBCHEM_MMFF94_PARTIAL_CHARGES>
10
1 -0.43
10 0.14
11 -0.29
12 0.14
2 -0.57
27 0.15
3 0.06
6 0.66
8 0.42
9 -0.28

> <PUBCHEM_EFFECTIVE_ROTOR_COUNT>
5

> <PUBCHEM_PHARMACOPHORE_FEATURES>
5
1 10 hydrophobe
1 12 hydrophobe
1 2 acceptor
1 5 hydrophobe
1 7 hydrophobe

> <PUBCHEM_HEAVY_ATOM_COUNT>
12

> <PUBCHEM_ATOM_DEF_STEREO_COUNT>
0

> <PUBCHEM_ATOM_UDEF_STEREO_COUNT>
1

> <PUBCHEM_BOND_DEF_STEREO_COUNT>
1

> <PUBCHEM_BOND_UDEF_STEREO_COUNT>
0

> <PUBCHEM_ISOTOPIC_ATOM_COUNT>
0

> <PUBCHEM_COMPONENT_COUNT>
1

> <PUBCHEM_CACTVS_TAUTO_COUNT>
1

> <PUBCHEM_CONFORMER_ID>
0061232A00000003

> <PUBCHEM_MMFF94_ENERGY>
10.0737

> <PUBCHEM_FEATURE_SELFOVERLAP>
25.375

> <PUBCHEM_SHAPE_FINGERPRINT>
11543360 7 7925618991409875777
12251169 10 17988635302981537526
12932764 1 18340778052246285037
13296908 3 17894904092639523189
14252887 29 18040434403677677944
14350558 41 18333733519907033103
15501101 241 18261951852280637524
177051 138 18408040710635543723
19107657 162 18041000665415193299
20279233 1 15791731922853887049
20523700 14 13406798826156447505
20645477 70 18341317916951048263
20671657 53 16370719327266307309
21501925 9 17676763262090133293
21730867 7 18408598167452212192
22169311 21 18334563642854343935
22485316 2 18340763832210746735
230 275 13973677313370441066
23402655 69 8430316861382845474
3248919 1 17676497154601398665
42 15 18412263913354598019
449060 23 17604431786561693766
5374978 207 17989209248483753489
581208 293 18113897182366401954
81228 2 16517078511079329540

> <PUBCHEM_SHAPE_MULTIPOLES>
235.22
7.59
1.67
1.05
5.12
0.67
-0.23
1.85
1.73
-1.21
0.37
-0.12
-0.26
-0.19

> <PUBCHEM_SHAPE_SELFOVERLAP>
439.041

> <PUBCHEM_SHAPE_VOLUME>
148.5

> <PUBCHEM_COORDINATE_TYPE>
2
5
10

$$$$
