6365867
  -OEChem-11232108443D

 28 27  0     0  0  0  0  0  0999 V2000
   -0.0318    0.1120    0.3552 O   0  0  0  0  0  0  0  0  0  0  0  0
   -1.2947   -1.7945    0.6220 O   0  0  0  0  0  0  0  0  0  0  0  0
    3.4316    0.1719   -0.2233 C   0  0  0  0  0  0  0  0  0  0  0  0
    1.1593   -0.6325    0.6316 C   0  0  0  0  0  0  0  0  0  0  0  0
    2.3443    0.2788    0.5634 C   0  0  0  0  0  0  0  0  0  0  0  0
   -2.3387    0.3068    0.0726 C   0  0  0  0  0  0  0  0  0  0  0  0
    4.5323    1.1967   -0.1421 C   0  0  0  0  0  0  0  0  0  0  0  0
    3.6773   -0.9179   -1.2281 C   0  0  0  0  0  0  0  0  0  0  0  0
   -1.1920   -0.5995    0.3844 C   0  0  0  0  0  0  0  0  0  0  0  0
   -2.2445    1.7439    0.4919 C   0  0  0  0  0  0  0  0  0  0  0  0
   -3.3894   -0.2662   -0.5431 C   0  0  0  0  0  0  0  0  0  0  0  0
   -4.6538    0.4004   -0.9844 C   0  0  0  0  0  0  0  0  0  0  0  0
    1.0940   -1.0390    1.6479 H   0  0  0  0  0  0  0  0  0  0  0  0
    1.2249   -1.4684   -0.0686 H   0  0  0  0  0  0  0  0  0  0  0  0
    2.2954    1.1208    1.2532 H   0  0  0  0  0  0  0  0  0  0  0  0
    5.4760    0.7176    0.1387 H   0  0  0  0  0  0  0  0  0  0  0  0
    4.6660    1.6869   -1.1121 H   0  0  0  0  0  0  0  0  0  0  0  0
    4.3238    1.9770    0.5975 H   0  0  0  0  0  0  0  0  0  0  0  0
    4.5985   -1.4556   -0.9793 H   0  0  0  0  0  0  0  0  0  0  0  0
    2.8765   -1.6569   -1.2850 H   0  0  0  0  0  0  0  0  0  0  0  0
    3.7921   -0.4860   -2.2281 H   0  0  0  0  0  0  0  0  0  0  0  0
   -3.2207    2.2310    0.5577 H   0  0  0  0  0  0  0  0  0  0  0  0
   -1.7922    1.8228    1.4867 H   0  0  0  0  0  0  0  0  0  0  0  0
   -1.6260    2.3070   -0.2143 H   0  0  0  0  0  0  0  0  0  0  0  0
   -3.3504   -1.3273   -0.7846 H   0  0  0  0  0  0  0  0  0  0  0  0
   -4.8380    0.1707   -2.0389 H   0  0  0  0  0  0  0  0  0  0  0  0
   -4.6302    1.4880   -0.8881 H   0  0  0  0  0  0  0  0  0  0  0  0
   -5.4975    0.0195   -0.4011 H   0  0  0  0  0  0  0  0  0  0  0  0
  1  4  1  0  0  0  0
  1  9  1  0  0  0  0
  2  9  2  0  0  0  0
  3  5  2  0  0  0  0
  3  7  1  0  0  0  0
  3  8  1  0  0  0  0
  4  5  1  0  0  0  0
  4 13  1  0  0  0  0
  4 14  1  0  0  0  0
  5 15  1  0  0  0  0
  6  9  1  0  0  0  0
  6 10  1  0  0  0  0
  6 11  2  0  0  0  0
  7 16  1  0  0  0  0
  7 17  1  0  0  0  0
  7 18  1  0  0  0  0
  8 19  1  0  0  0  0
  8 20  1  0  0  0  0
  8 21  1  0  0  0  0
 10 22  1  0  0  0  0
 10 23  1  0  0  0  0
 10 24  1  0  0  0  0
 11 12  1  0  0  0  0
 11 25  1  0  0  0  0
 12 26  1  0  0  0  0
 12 27  1  0  0  0  0
 12 28  1  0  0  0  0
M  END
> <PUBCHEM_COMPOUND_CID>
6365867

> <PUBCHEM_CONFORMER_RMSD>
0.6

> <PUBCHEM_CONFORMER_DIVERSEORDER>
1
150
110
37
16
83
141
109
79
89
149
132
93
70
140
17
81
68
35
88
137
104
38
96
121
157
103
64
142
134
107
73
99
9
84
57
135
97
148
69
43
66
59
90
105
63
31
53
58
28
127
144
85
151
102
21
126
119
74
48
113
145
122
65
62
146
67
54
39
129
101
76
30
106
2
136
40
120
147
115
29
11
116
138
52
118
91
75
3
25
156
153
77
82
50
44
98
71
18
42
123
46
152
139
124
86
87
114
41
80
125
49
45
61
60
158
78
24
72
117
19
154
20
92
95
130
36
155
34
47
8
13
12
131
128
4
51
143
112
133
56
6
15
33
26
23
111
32
27
55
108
10
94
5
7
100
22
14

> <PUBCHEM_MMFF94_PARTIAL_CHARGES>
14
1 -0.43
10 0.14
11 -0.29
12 0.14
15 0.15
2 -0.57
25 0.15
3 -0.28
4 0.42
5 -0.29
6 -0.12
7 0.14
8 0.14
9 0.71

> <PUBCHEM_EFFECTIVE_ROTOR_COUNT>
4

> <PUBCHEM_PHARMACOPHORE_FEATURES>
4
1 10 hydrophobe
1 12 hydrophobe
1 2 acceptor
3 3 7 8 hydrophobe

> <PUBCHEM_HEAVY_ATOM_COUNT>
12

> <PUBCHEM_ATOM_DEF_STEREO_COUNT>
0

> <PUBCHEM_ATOM_UDEF_STEREO_COUNT>
0

> <PUBCHEM_BOND_DEF_STEREO_COUNT>
1

> <PUBCHEM_BOND_UDEF_STEREO_COUNT>
0

> <PUBCHEM_ISOTOPIC_ATOM_COUNT>
0

> <PUBCHEM_COMPONENT_COUNT>
1

> <PUBCHEM_CACTVS_TAUTO_COUNT>
1

> <PUBCHEM_CONFORMER_ID>
006122AB00000001

> <PUBCHEM_MMFF94_ENERGY>
14.9233

> <PUBCHEM_FEATURE_SELFOVERLAP>
20.298

> <PUBCHEM_SHAPE_FINGERPRINT>
10014705 185 17895192259280912460
114248 4 18060135470351821260
11543360 7 17775279503933484180
12251169 10 10665233635400308299
14252887 29 9727639431557719652
14445660 50 11674889882830046349
14897335 6 18113332011946706298
14993402 34 18186517696382638053
15775835 57 17458338645697268354
177051 138 12319739172028704718
18186145 218 18260558801012737594
190213 19 17603310349331580544
200 152 16415479350321390379
20279233 1 18201443597132169258
20300324 65 18130785659642092769
20645477 56 18261395584916598552
20645477 70 17775292621354651790
20671657 53 15410894046208144706
20767249 442 17676482852381226548
21293036 1 18342173375446038625
22169311 14 12179847208120586740
22485316 2 16056874736660147935
22926399 37 18187359926764050669
22959321 60 13479432585899375028
23402539 116 18411972581396158351
23402655 69 18272084976779670637
23557571 272 18264777742808080242
23559900 14 18412824707650986290
4028521 119 18334289859948042509
42 15 9583524230333107332
93112 12 18411987974770047438

> <PUBCHEM_SHAPE_MULTIPOLES>
235.22
9.26
1.37
0.98
1.78
0.13
-0.16
1.87
-3.59
-0.03
0.15
0.01
-0.16
0.3

> <PUBCHEM_SHAPE_SELFOVERLAP>
444.332

> <PUBCHEM_SHAPE_VOLUME>
146.5

> <PUBCHEM_COORDINATE_TYPE>
2
5
10

$$$$
