6365572
  -OEChem-11232108453D

 29 28  0     0  0  0  0  0  0999 V2000
    2.8662    2.4426   -0.0411 S   0  0  0  0  0  0  0  0  0  0  0  0
    0.3527   -1.7565   -0.8678 C   0  0  0  0  0  0  0  0  0  0  0  0
   -1.1270   -1.5044   -0.5482 C   0  0  0  0  0  0  0  0  0  0  0  0
    1.3119   -1.0145    0.0448 C   0  0  0  0  0  0  0  0  0  0  0  0
   -1.5091   -0.0569   -0.6977 C   0  0  0  0  0  0  0  0  0  0  0  0
   -2.4445    0.6309   -0.0157 C   0  0  0  0  0  0  0  0  0  0  0  0
    1.1614   -1.3087    1.5120 C   0  0  0  0  0  0  0  0  0  0  0  0
    2.2084   -0.1547   -0.4786 C   0  0  0  0  0  0  0  0  0  0  0  0
   -2.7765    2.0820   -0.2165 C   0  0  0  0  0  0  0  0  0  0  0  0
   -3.2528   -0.0461    1.0592 C   0  0  0  0  0  0  0  0  0  0  0  0
    3.2093    0.6863    0.2497 C   0  0  0  0  0  0  0  0  0  0  0  0
    0.5396   -1.5053   -1.9203 H   0  0  0  0  0  0  0  0  0  0  0  0
    0.5536   -2.8319   -0.7781 H   0  0  0  0  0  0  0  0  0  0  0  0
   -1.3450   -1.8852    0.4540 H   0  0  0  0  0  0  0  0  0  0  0  0
   -1.7302   -2.0902   -1.2525 H   0  0  0  0  0  0  0  0  0  0  0  0
   -0.9806    0.4825   -1.4834 H   0  0  0  0  0  0  0  0  0  0  0  0
    0.2808   -0.8017    1.9184 H   0  0  0  0  0  0  0  0  0  0  0  0
    2.0268   -1.0040    2.1043 H   0  0  0  0  0  0  0  0  0  0  0  0
    1.0446   -2.3863    1.6708 H   0  0  0  0  0  0  0  0  0  0  0  0
    2.2275   -0.0427   -1.5630 H   0  0  0  0  0  0  0  0  0  0  0  0
   -3.8197    2.1971   -0.5275 H   0  0  0  0  0  0  0  0  0  0  0  0
   -2.6229    2.6405    0.7124 H   0  0  0  0  0  0  0  0  0  0  0  0
   -2.1453    2.5360   -0.9876 H   0  0  0  0  0  0  0  0  0  0  0  0
   -2.9028    0.2703    2.0472 H   0  0  0  0  0  0  0  0  0  0  0  0
   -3.2295   -1.1373    1.0171 H   0  0  0  0  0  0  0  0  0  0  0  0
   -4.3078    0.2363    0.9665 H   0  0  0  0  0  0  0  0  0  0  0  0
    4.2120    0.4606   -0.1268 H   0  0  0  0  0  0  0  0  0  0  0  0
    3.2192    0.5202    1.3278 H   0  0  0  0  0  0  0  0  0  0  0  0
    1.6685    2.4700    0.5625 H   0  0  0  0  0  0  0  0  0  0  0  0
  1 11  1  0  0  0  0
  1 29  1  0  0  0  0
  2  3  1  0  0  0  0
  2  4  1  0  0  0  0
  2 12  1  0  0  0  0
  2 13  1  0  0  0  0
  3  5  1  0  0  0  0
  3 14  1  0  0  0  0
  3 15  1  0  0  0  0
  4  7  1  0  0  0  0
  4  8  2  0  0  0  0
  5  6  2  0  0  0  0
  5 16  1  0  0  0  0
  6  9  1  0  0  0  0
  6 10  1  0  0  0  0
  7 17  1  0  0  0  0
  7 18  1  0  0  0  0
  7 19  1  0  0  0  0
  8 11  1  0  0  0  0
  8 20  1  0  0  0  0
  9 21  1  0  0  0  0
  9 22  1  0  0  0  0
  9 23  1  0  0  0  0
 10 24  1  0  0  0  0
 10 25  1  0  0  0  0
 10 26  1  0  0  0  0
 11 27  1  0  0  0  0
 11 28  1  0  0  0  0
M  END
> <PUBCHEM_COMPOUND_CID>
6365572

> <PUBCHEM_CONFORMER_RMSD>
0.6

> <PUBCHEM_CONFORMER_DIVERSEORDER>
17
15
35
59
74
73
39
66
22
31
8
42
55
27
37
38
4
46
81
72
26
69
86
65
28
40
64
67
80
51
30
56
10
32
2
84
48
18
83
75
79
41
49
6
13
1
24
52
85
5
54
62
19
68
82
76
78
7
9
63
44
70
36
77
53
89
16
57
60
71
33
43
12
88
11
29
45
58
61
3
34
87
20
25
47
14
21
23
50

> <PUBCHEM_MMFF94_PARTIAL_CHARGES>
14
1 -0.41
10 0.14
11 0.37
16 0.15
2 0.14
20 0.15
29 0.18
3 0.14
4 -0.28
5 -0.29
6 -0.28
7 0.14
8 -0.29
9 0.14

> <PUBCHEM_EFFECTIVE_ROTOR_COUNT>
4

> <PUBCHEM_PHARMACOPHORE_FEATURES>
3
1 7 hydrophobe
3 6 9 10 hydrophobe
4 2 3 4 5 hydrophobe

> <PUBCHEM_HEAVY_ATOM_COUNT>
11

> <PUBCHEM_ATOM_DEF_STEREO_COUNT>
0

> <PUBCHEM_ATOM_UDEF_STEREO_COUNT>
0

> <PUBCHEM_BOND_DEF_STEREO_COUNT>
1

> <PUBCHEM_BOND_UDEF_STEREO_COUNT>
0

> <PUBCHEM_ISOTOPIC_ATOM_COUNT>
0

> <PUBCHEM_COMPONENT_COUNT>
1

> <PUBCHEM_CACTVS_TAUTO_COUNT>
1

> <PUBCHEM_CONFORMER_ID>
0061218400000011

> <PUBCHEM_MMFF94_ENERGY>
9.4715

> <PUBCHEM_FEATURE_SELFOVERLAP>
15.245

> <PUBCHEM_SHAPE_FINGERPRINT>
10149128 111 18131918160554752433
10857977 72 17313117340734933407
11031198 65 16559041466969047191
13549 16 11455628534236913403
13618510 140 18342174414797027909
13897977 13 18335426811059029645
14026960 21 18409458011283632505
14128692 85 9943525254011038734
14251711 518 18409719664711946044
14648413 74 18124038927328924455
15775835 57 18339646749418322444
170605 34 18409451383922079050
17357990 137 18341037541617580570
18186145 218 17917721188336185222
20304884 271 18341611585350324884
20653085 51 18269847565486183086
20828058 19 11170182194187564491
20828058 43 18334300855106310195
21061003 4 16664551577891740610
21524375 3 18271241715817402350
22959321 28 18335987540334744609
230 275 17844518907925172731
305870 269 18334286557461083154

> <PUBCHEM_SHAPE_MULTIPOLES>
230.22
5.63
2.44
1.1
0.21
1.07
-0.3
3.78
-0.8
-0.65
0.2
0.12
-0.42
-0.12

> <PUBCHEM_SHAPE_SELFOVERLAP>
415.011

> <PUBCHEM_SHAPE_VOLUME>
148.1

> <PUBCHEM_COORDINATE_TYPE>
2
5
10

$$$$
