6365665
  -OEChem-11232109213D

 42 42  0     1  0  0  0  0  0999 V2000
   -3.4330   -0.3315   -0.1234 O   0  0  0  0  0  0  0  0  0  0  0  0
    2.3398    0.9985   -0.1856 C   0  0  0  0  0  0  0  0  0  0  0  0
    1.2382   -0.0606   -0.5441 C   0  0  1  0  0  0  0  0  0  0  0  0
    2.9242    0.6776    1.2103 C   0  0  0  0  0  0  0  0  0  0  0  0
    3.4924   -0.7408    1.3118 C   0  0  0  0  0  0  0  0  0  0  0  0
    1.7037   -1.4888   -0.2911 C   0  0  0  0  0  0  0  0  0  0  0  0
    3.4632    0.9675   -1.2516 C   0  0  0  0  0  0  0  0  0  0  0  0
    1.7761    2.4362   -0.1754 C   0  0  0  0  0  0  0  0  0  0  0  0
    2.7149   -1.7716    0.5498 C   0  0  0  0  0  0  0  0  0  0  0  0
   -0.0634    0.1728    0.1780 C   0  0  0  0  0  0  0  0  0  0  0  0
    0.9870   -2.5770   -1.0420 C   0  0  0  0  0  0  0  0  0  0  0  0
   -1.2211    0.4495   -0.4399 C   0  0  0  0  0  0  0  0  0  0  0  0
   -2.5154    0.6806    0.2827 C   0  0  1  0  0  0  0  0  0  0  0  0
   -3.0984    2.0470   -0.0527 C   0  0  0  0  0  0  0  0  0  0  0  0
   -4.6891   -0.1803    0.5208 C   0  0  0  0  0  0  0  0  0  0  0  0
   -5.6191   -1.2791    0.0523 C   0  0  0  0  0  0  0  0  0  0  0  0
    1.0580    0.0340   -1.6254 H   0  0  0  0  0  0  0  0  0  0  0  0
    2.1449    0.7982    1.9743 H   0  0  0  0  0  0  0  0  0  0  0  0
    3.7114    1.3962    1.4728 H   0  0  0  0  0  0  0  0  0  0  0  0
    3.5399   -1.0308    2.3679 H   0  0  0  0  0  0  0  0  0  0  0  0
    4.5241   -0.7481    0.9398 H   0  0  0  0  0  0  0  0  0  0  0  0
    4.2687    1.6640   -0.9918 H   0  0  0  0  0  0  0  0  0  0  0  0
    3.9128   -0.0232   -1.3668 H   0  0  0  0  0  0  0  0  0  0  0  0
    3.0758    1.2628   -2.2336 H   0  0  0  0  0  0  0  0  0  0  0  0
    2.5758    3.1697   -0.0192 H   0  0  0  0  0  0  0  0  0  0  0  0
    1.2881    2.6750   -1.1271 H   0  0  0  0  0  0  0  0  0  0  0  0
    1.0466    2.5865    0.6274 H   0  0  0  0  0  0  0  0  0  0  0  0
    3.0234   -2.8044    0.6919 H   0  0  0  0  0  0  0  0  0  0  0  0
   -0.0513    0.1089    1.2640 H   0  0  0  0  0  0  0  0  0  0  0  0
   -0.0711   -2.6074   -0.7642 H   0  0  0  0  0  0  0  0  0  0  0  0
    1.4104   -3.5661   -0.8376 H   0  0  0  0  0  0  0  0  0  0  0  0
    1.0594   -2.4038   -2.1207 H   0  0  0  0  0  0  0  0  0  0  0  0
   -1.2450    0.5082   -1.5257 H   0  0  0  0  0  0  0  0  0  0  0  0
   -2.3579    0.6060    1.3664 H   0  0  0  0  0  0  0  0  0  0  0  0
   -2.3242    2.8227   -0.0211 H   0  0  0  0  0  0  0  0  0  0  0  0
   -3.8608    2.3522    0.6720 H   0  0  0  0  0  0  0  0  0  0  0  0
   -3.5568    2.0617   -1.0482 H   0  0  0  0  0  0  0  0  0  0  0  0
   -4.5637   -0.2386    1.6078 H   0  0  0  0  0  0  0  0  0  0  0  0
   -5.1703    0.7664    0.2610 H   0  0  0  0  0  0  0  0  0  0  0  0
   -6.5986   -1.1947    0.5317 H   0  0  0  0  0  0  0  0  0  0  0  0
   -5.7523   -1.2356   -1.0338 H   0  0  0  0  0  0  0  0  0  0  0  0
   -5.1982   -2.2637    0.2818 H   0  0  0  0  0  0  0  0  0  0  0  0
  1 13  1  0  0  0  0
  1 15  1  0  0  0  0
  2  3  1  0  0  0  0
  2  4  1  0  0  0  0
  2  7  1  0  0  0  0
  2  8  1  0  0  0  0
  3  6  1  0  0  0  0
  3 10  1  0  0  0  0
  3 17  1  0  0  0  0
  4  5  1  0  0  0  0
  4 18  1  0  0  0  0
  4 19  1  0  0  0  0
  5  9  1  0  0  0  0
  5 20  1  0  0  0  0
  5 21  1  0  0  0  0
  6  9  2  0  0  0  0
  6 11  1  0  0  0  0
  7 22  1  0  0  0  0
  7 23  1  0  0  0  0
  7 24  1  0  0  0  0
  8 25  1  0  0  0  0
  8 26  1  0  0  0  0
  8 27  1  0  0  0  0
  9 28  1  0  0  0  0
 10 12  2  0  0  0  0
 10 29  1  0  0  0  0
 11 30  1  0  0  0  0
 11 31  1  0  0  0  0
 11 32  1  0  0  0  0
 12 13  1  0  0  0  0
 12 33  1  0  0  0  0
 13 14  1  0  0  0  0
 13 34  1  0  0  0  0
 14 35  1  0  0  0  0
 14 36  1  0  0  0  0
 14 37  1  0  0  0  0
 15 16  1  0  0  0  0
 15 38  1  0  0  0  0
 15 39  1  0  0  0  0
 16 40  1  0  0  0  0
 16 41  1  0  0  0  0
 16 42  1  0  0  0  0
M  END
> <PUBCHEM_COMPOUND_CID>
6365665

> <PUBCHEM_CONFORMER_RMSD>
0.6

> <PUBCHEM_CONFORMER_DIVERSEORDER>
4
59
114
79
74
109
15
92
46
32
33
23
34
104
43
103
44
14
105
38
66
41
50
113
68
31
49
35
48
70
63
117
89
54
62
17
8
100
102
45
6
21
25
69
67
77
22
55
108
118
7
90
107
101
2
84
96
52
116
9
82
28
111
39
37
99
93
98
112
75
81
36
5
42
115
61
76
91
20
3
53
119
11
56
58
80
10
30
87
16
40
57
65
95
29
19
64
88
86
27
24
78
12
73
13
18
94
26
106
1
97
71
47
110
83
85
60
72
51

> <PUBCHEM_MMFF94_PARTIAL_CHARGES>
13
1 -0.56
10 -0.29
11 0.14
12 -0.29
13 0.42
15 0.28
28 0.15
29 0.15
3 0.28
33 0.15
5 0.14
6 -0.28
9 -0.29

> <PUBCHEM_EFFECTIVE_ROTOR_COUNT>
4.8

> <PUBCHEM_PHARMACOPHORE_FEATURES>
3
1 1 acceptor
3 2 7 8 hydrophobe
6 2 3 4 5 6 9 rings

> <PUBCHEM_HEAVY_ATOM_COUNT>
16

> <PUBCHEM_ATOM_DEF_STEREO_COUNT>
0

> <PUBCHEM_ATOM_UDEF_STEREO_COUNT>
2

> <PUBCHEM_BOND_DEF_STEREO_COUNT>
1

> <PUBCHEM_BOND_UDEF_STEREO_COUNT>
0

> <PUBCHEM_ISOTOPIC_ATOM_COUNT>
0

> <PUBCHEM_COMPONENT_COUNT>
1

> <PUBCHEM_CACTVS_TAUTO_COUNT>
1

> <PUBCHEM_CONFORMER_ID>
006121E100000004

> <PUBCHEM_MMFF94_ENERGY>
28.3838

> <PUBCHEM_FEATURE_SELFOVERLAP>
15.223

> <PUBCHEM_SHAPE_FINGERPRINT>
10366900 7 18335712688424581297
10447042 23 18337943589296792871
10616163 171 18268154321895844743
10980938 120 18412268311242957476
12251169 10 18408597076251080594
12596602 18 16343431712893907027
12616999 72 18336557070178011500
12932764 1 17632289060634734589
13836976 161 18337115677866749292
14178342 30 18197775492664997321
14289901 80 18410862040545762137
16945 1 17822560617705740076
18186145 218 11455886936638760273
19050596 39 18342175553485009721
20559304 39 18412263921865632104
20645477 70 18335138678983172031
21501925 9 18335134272077389193
21637258 2 16154537676709910410
23558518 356 17328299659464013900
23559900 14 18268426824511358855
251288 83 18187363233493190715
2748010 2 17620450439066704782
3060560 45 18339934800211315108
31174 14 18187075182963884452
312423 11 18335151860195501449
3286 77 18114176419517419397
427121 178 17774992540410751242
5104073 3 18409731734118661889
5283173 99 18115292390488990093
5374978 207 18409730668966589961
58051976 378 18411705421550836831
9709674 26 18409455760979440243
9999458 23 18114749360192688100

> <PUBCHEM_SHAPE_MULTIPOLES>
323.4
9.11
2.36
1.07
14.35
0.2
0.06
1.43
1.48
-0.81
-0.45
-1.04
0.13
-0.3

> <PUBCHEM_SHAPE_SELFOVERLAP>
633.113

> <PUBCHEM_SHAPE_VOLUME>
194.9

> <PUBCHEM_COORDINATE_TYPE>
2
5
10

$$$$
