6365761
  -OEChem-11232109233D

 21 20  0     0  0  0  0  0  0999 V2000
   -3.5429   -1.2679   -0.2316 O   0  0  0  0  0  0  0  0  0  0  0  0
    1.5875    1.5457    0.1164 C   0  0  0  0  0  0  0  0  0  0  0  0
    0.1356    1.9112   -0.2092 C   0  0  0  0  0  0  0  0  0  0  0  0
    1.9695    0.1861   -0.3970 C   0  0  0  0  0  0  0  0  0  0  0  0
   -0.8515    0.9539    0.3985 C   0  0  0  0  0  0  0  0  0  0  0  0
    2.3873   -0.8172    0.3881 C   0  0  0  0  0  0  0  0  0  0  0  0
   -1.7634    0.2857   -0.3178 C   0  0  0  0  0  0  0  0  0  0  0  0
    2.7680   -2.1675   -0.1216 C   0  0  0  0  0  0  0  0  0  0  0  0
   -2.6901   -0.6301    0.3741 C   0  0  0  0  0  0  0  0  0  0  0  0
    2.2519    2.2876   -0.3429 H   0  0  0  0  0  0  0  0  0  0  0  0
    1.7486    1.6116    1.2000 H   0  0  0  0  0  0  0  0  0  0  0  0
    0.0055    1.9657   -1.2975 H   0  0  0  0  0  0  0  0  0  0  0  0
   -0.0718    2.9146    0.1818 H   0  0  0  0  0  0  0  0  0  0  0  0
    1.9044    0.0331   -1.4715 H   0  0  0  0  0  0  0  0  0  0  0  0
   -0.8062    0.8318    1.4782 H   0  0  0  0  0  0  0  0  0  0  0  0
    2.4576   -0.6654    1.4619 H   0  0  0  0  0  0  0  0  0  0  0  0
   -1.8483    0.3842   -1.3932 H   0  0  0  0  0  0  0  0  0  0  0  0
    2.6683   -2.2443   -1.2089 H   0  0  0  0  0  0  0  0  0  0  0  0
    2.1298   -2.9309    0.3339 H   0  0  0  0  0  0  0  0  0  0  0  0
    3.8073   -2.3859    0.1420 H   0  0  0  0  0  0  0  0  0  0  0  0
   -2.5729   -0.7106    1.4677 H   0  0  0  0  0  0  0  0  0  0  0  0
  1  9  2  0  0  0  0
  2  3  1  0  0  0  0
  2  4  1  0  0  0  0
  2 10  1  0  0  0  0
  2 11  1  0  0  0  0
  3  5  1  0  0  0  0
  3 12  1  0  0  0  0
  3 13  1  0  0  0  0
  4  6  2  0  0  0  0
  4 14  1  0  0  0  0
  5  7  2  0  0  0  0
  5 15  1  0  0  0  0
  6  8  1  0  0  0  0
  6 16  1  0  0  0  0
  7  9  1  0  0  0  0
  7 17  1  0  0  0  0
  8 18  1  0  0  0  0
  8 19  1  0  0  0  0
  8 20  1  0  0  0  0
  9 21  1  0  0  0  0
M  END
> <PUBCHEM_COMPOUND_CID>
6365761

> <PUBCHEM_CONFORMER_RMSD>
0.6

> <PUBCHEM_CONFORMER_DIVERSEORDER>
1
2
16
9
7
3
6
19
13
20
5
8
10
11
4
15
14
18
17
12

> <PUBCHEM_MMFF94_PARTIAL_CHARGES>
14
1 -0.57
14 0.15
15 0.15
16 0.15
17 0.15
2 0.14
21 0.06
3 0.14
4 -0.29
5 -0.29
6 -0.29
7 -0.14
8 0.14
9 0.5

> <PUBCHEM_EFFECTIVE_ROTOR_COUNT>
4

> <PUBCHEM_PHARMACOPHORE_FEATURES>
3
1 1 acceptor
1 8 hydrophobe
4 2 3 4 5 hydrophobe

> <PUBCHEM_HEAVY_ATOM_COUNT>
9

> <PUBCHEM_ATOM_DEF_STEREO_COUNT>
0

> <PUBCHEM_ATOM_UDEF_STEREO_COUNT>
0

> <PUBCHEM_BOND_DEF_STEREO_COUNT>
2

> <PUBCHEM_BOND_UDEF_STEREO_COUNT>
0

> <PUBCHEM_ISOTOPIC_ATOM_COUNT>
0

> <PUBCHEM_COMPONENT_COUNT>
1

> <PUBCHEM_CACTVS_TAUTO_COUNT>
1

> <PUBCHEM_CONFORMER_ID>
0061224100000001

> <PUBCHEM_MMFF94_ENERGY>
1.4013

> <PUBCHEM_FEATURE_SELFOVERLAP>
15.223

> <PUBCHEM_SHAPE_FINGERPRINT>
14128692 85 18263092015721194100
14251717 144 18338792441974320207
14390081 3 9151169852943307641
20201158 50 18261674877823193131
20211469 16 18339643317855367598
20645477 70 18336258054950801607
20711985 344 17604701141172824477
20724930 33 18193274088130119458
20871998 22 18412264999970618386
23500284 5 18341336578425297411
23530152 11 17688877857478106436
23552333 60 18059020604174037096
23552423 10 18335428996938998413

> <PUBCHEM_SHAPE_MULTIPOLES>
179.35
5.17
2.2
0.7
2.14
0.08
0.01
3.94
-0.07
-0.96
-0.07
-0.01
-0.01
-0.04

> <PUBCHEM_SHAPE_SELFOVERLAP>
328.078

> <PUBCHEM_SHAPE_VOLUME>
113.3

> <PUBCHEM_COORDINATE_TYPE>
2
5
10

$$$$
