6365995
  -OEChem-11232108543D

 36 36  0     0  0  0  0  0  0999 V2000
    2.8727    3.1240    0.0544 O   0  0  0  0  0  0  0  0  0  0  0  0
    2.1719   -0.3203   -0.1861 C   0  0  0  0  0  0  0  0  0  0  0  0
    2.8005   -1.5360    0.5034 C   0  0  0  0  0  0  0  0  0  0  0  0
    1.5041    0.6923    0.7564 C   0  0  0  0  0  0  0  0  0  0  0  0
    3.4497   -2.5129   -0.4784 C   0  0  0  0  0  0  0  0  0  0  0  0
    0.8453    1.8509    0.0498 C   0  0  0  0  0  0  0  0  0  0  0  0
    4.0656   -3.7000    0.2458 C   0  0  0  0  0  0  0  0  0  0  0  0
   -0.4266    1.9388   -0.3790 C   0  0  0  0  0  0  0  0  0  0  0  0
   -1.4536    0.9021   -0.2288 C   0  0  0  0  0  0  0  0  0  0  0  0
    1.6905    3.0407   -0.2575 C   0  0  0  0  0  0  0  0  0  0  0  0
   -1.6245   -0.0434   -1.2314 C   0  0  0  0  0  0  0  0  0  0  0  0
   -2.2412    0.8788    0.9147 C   0  0  0  0  0  0  0  0  0  0  0  0
   -3.3966   -1.0617    0.0568 C   0  0  0  0  0  0  0  0  0  0  0  0
   -2.6003   -1.0298   -1.0880 C   0  0  0  0  0  0  0  0  0  0  0  0
   -3.2171   -0.1076    1.0582 C   0  0  0  0  0  0  0  0  0  0  0  0
   -4.4404   -2.1159    0.2098 C   0  0  0  0  0  0  0  0  0  0  0  0
    2.9481    0.1946   -0.7672 H   0  0  0  0  0  0  0  0  0  0  0  0
    1.4316   -0.6774   -0.9129 H   0  0  0  0  0  0  0  0  0  0  0  0
    3.5521   -1.1886    1.2228 H   0  0  0  0  0  0  0  0  0  0  0  0
    2.0271   -2.0590    1.0794 H   0  0  0  0  0  0  0  0  0  0  0  0
    0.7598    0.1647    1.3660 H   0  0  0  0  0  0  0  0  0  0  0  0
    2.2439    1.0668    1.4748 H   0  0  0  0  0  0  0  0  0  0  0  0
    2.7006   -2.8738   -1.1926 H   0  0  0  0  0  0  0  0  0  0  0  0
    4.2270   -1.9982   -1.0547 H   0  0  0  0  0  0  0  0  0  0  0  0
    3.3066   -4.2537    0.8076 H   0  0  0  0  0  0  0  0  0  0  0  0
    4.5239   -4.3861   -0.4732 H   0  0  0  0  0  0  0  0  0  0  0  0
    4.8413   -3.3733    0.9456 H   0  0  0  0  0  0  0  0  0  0  0  0
   -0.7838    2.8290   -0.8932 H   0  0  0  0  0  0  0  0  0  0  0  0
    1.1895    3.8662   -0.7914 H   0  0  0  0  0  0  0  0  0  0  0  0
   -1.0112   -0.0294   -2.1288 H   0  0  0  0  0  0  0  0  0  0  0  0
   -2.1119    1.6166    1.7024 H   0  0  0  0  0  0  0  0  0  0  0  0
   -2.7319   -1.7667   -1.8759 H   0  0  0  0  0  0  0  0  0  0  0  0
   -3.8324   -0.1209    1.9539 H   0  0  0  0  0  0  0  0  0  0  0  0
   -4.1461   -3.0401   -0.2992 H   0  0  0  0  0  0  0  0  0  0  0  0
   -4.5967   -2.3673    1.2644 H   0  0  0  0  0  0  0  0  0  0  0  0
   -5.3889   -1.7695   -0.2126 H   0  0  0  0  0  0  0  0  0  0  0  0
  1 10  2  0  0  0  0
  2  3  1  0  0  0  0
  2  4  1  0  0  0  0
  2 17  1  0  0  0  0
  2 18  1  0  0  0  0
  3  5  1  0  0  0  0
  3 19  1  0  0  0  0
  3 20  1  0  0  0  0
  4  6  1  0  0  0  0
  4 21  1  0  0  0  0
  4 22  1  0  0  0  0
  5  7  1  0  0  0  0
  5 23  1  0  0  0  0
  5 24  1  0  0  0  0
  6  8  2  0  0  0  0
  6 10  1  0  0  0  0
  7 25  1  0  0  0  0
  7 26  1  0  0  0  0
  7 27  1  0  0  0  0
  8  9  1  0  0  0  0
  8 28  1  0  0  0  0
  9 11  2  0  0  0  0
  9 12  1  0  0  0  0
 10 29  1  0  0  0  0
 11 14  1  0  0  0  0
 11 30  1  0  0  0  0
 12 15  2  0  0  0  0
 12 31  1  0  0  0  0
 13 14  2  0  0  0  0
 13 15  1  0  0  0  0
 13 16  1  0  0  0  0
 14 32  1  0  0  0  0
 15 33  1  0  0  0  0
 16 34  1  0  0  0  0
 16 35  1  0  0  0  0
 16 36  1  0  0  0  0
M  END
> <PUBCHEM_COMPOUND_CID>
6365995

> <PUBCHEM_CONFORMER_RMSD>
0.8

> <PUBCHEM_CONFORMER_DIVERSEORDER>
1
6
22
14
19
8
11
9
10
7
16
21
24
20
3
13
2
23
5
15
18
17
4
12

> <PUBCHEM_MMFF94_PARTIAL_CHARGES>
18
1 -0.57
10 0.5
11 -0.15
12 -0.15
13 -0.14
14 -0.15
15 -0.15
16 0.14
28 0.15
29 0.06
30 0.15
31 0.15
32 0.15
33 0.15
4 0.14
6 -0.12
8 -0.18
9 0.03

> <PUBCHEM_EFFECTIVE_ROTOR_COUNT>
6

> <PUBCHEM_PHARMACOPHORE_FEATURES>
4
1 1 acceptor
1 7 hydrophobe
5 2 3 4 5 6 hydrophobe
6 9 11 12 13 14 15 rings

> <PUBCHEM_HEAVY_ATOM_COUNT>
16

> <PUBCHEM_ATOM_DEF_STEREO_COUNT>
0

> <PUBCHEM_ATOM_UDEF_STEREO_COUNT>
0

> <PUBCHEM_BOND_DEF_STEREO_COUNT>
1

> <PUBCHEM_BOND_UDEF_STEREO_COUNT>
0

> <PUBCHEM_ISOTOPIC_ATOM_COUNT>
0

> <PUBCHEM_COMPONENT_COUNT>
1

> <PUBCHEM_CACTVS_TAUTO_COUNT>
1

> <PUBCHEM_CONFORMER_ID>
0061232B00000001

> <PUBCHEM_MMFF94_ENERGY>
26.7693

> <PUBCHEM_FEATURE_SELFOVERLAP>
20.297

> <PUBCHEM_SHAPE_FINGERPRINT>
12107183 9 18197511640704013113
12363563 72 18336826373307569578
12553582 1 18266741281739333862
13533116 47 18270400628815591155
14251731 5 18338800005158676746
14863182 85 17974014147626603764
15279307 12 17912365625852674085
17859628 70 18265901430754323387
20291156 8 18337956658465523246
20645477 70 18191008183680660239
20871998 22 18410570665389891624
21665056 4 16753530488514156742
22445834 79 18128259080811199841
2255824 54 18265900348691538180
23728640 28 17110709078174660042
27216 239 11022952076901784351
3421961 26 18410855485898199578
458136 41 18120665879063473608
7097593 13 18271813418919415313
7364860 26 18339643455320792248
81228 2 17763724513215891752

> <PUBCHEM_SHAPE_MULTIPOLES>
323.4
7.68
4.08
1
0.27
0.26
-0.05
-8.45
0.78
5.29
-0.08
-0.54
-0.09
-0.17

> <PUBCHEM_SHAPE_SELFOVERLAP>
647.254

> <PUBCHEM_SHAPE_VOLUME>
191.8

> <PUBCHEM_COORDINATE_TYPE>
2
5
10

$$$$
