6366434
  -OEChem-11232109173D

 36 35  0     0  0  0  0  0  0999 V2000
    1.3657    0.1905   -0.3262 O   0  0  0  0  0  0  0  0  0  0  0  0
    2.7762    1.8726    0.3814 O   0  0  0  0  0  0  0  0  0  0  0  0
    4.4073   -0.9308   -0.1983 C   0  0  0  0  0  0  0  0  0  0  0  0
    3.6087    0.0793   -1.0369 C   0  0  0  0  0  0  0  0  0  0  0  0
   -4.5313    0.1724    0.0978 C   0  0  0  0  0  0  0  0  0  0  0  0
   -3.3040   -0.3889   -0.6270 C   0  0  0  0  0  0  0  0  0  0  0  0
    5.1260   -0.2463    0.9671 C   0  0  0  0  0  0  0  0  0  0  0  0
    3.4760   -2.0201    0.3367 C   0  0  0  0  0  0  0  0  0  0  0  0
   -5.7850   -0.6848   -0.0943 C   0  0  0  0  0  0  0  0  0  0  0  0
    2.5723    0.8338   -0.2316 C   0  0  0  0  0  0  0  0  0  0  0  0
   -2.0700    0.4408   -0.4194 C   0  0  0  0  0  0  0  0  0  0  0  0
   -6.9757   -0.0999    0.6497 C   0  0  0  0  0  0  0  0  0  0  0  0
    0.2801    0.8043    0.3542 C   0  0  0  0  0  0  0  0  0  0  0  0
   -0.9462   -0.0229    0.1468 C   0  0  0  0  0  0  0  0  0  0  0  0
    5.1572   -1.3975   -0.8485 H   0  0  0  0  0  0  0  0  0  0  0  0
    4.2829    0.8230   -1.4793 H   0  0  0  0  0  0  0  0  0  0  0  0
    3.1182   -0.4169   -1.8833 H   0  0  0  0  0  0  0  0  0  0  0  0
   -4.3118    0.2536    1.1704 H   0  0  0  0  0  0  0  0  0  0  0  0
   -4.7310    1.1907   -0.2599 H   0  0  0  0  0  0  0  0  0  0  0  0
   -3.5090   -0.4342   -1.7036 H   0  0  0  0  0  0  0  0  0  0  0  0
   -3.1322   -1.4214   -0.2983 H   0  0  0  0  0  0  0  0  0  0  0  0
    4.4268    0.1538    1.7083 H   0  0  0  0  0  0  0  0  0  0  0  0
    5.7767   -0.9607    1.4833 H   0  0  0  0  0  0  0  0  0  0  0  0
    5.7543    0.5755    0.6079 H   0  0  0  0  0  0  0  0  0  0  0  0
    2.7642   -1.6335    1.0733 H   0  0  0  0  0  0  0  0  0  0  0  0
    2.9113   -2.4880   -0.4765 H   0  0  0  0  0  0  0  0  0  0  0  0
    4.0584   -2.8069    0.8291 H   0  0  0  0  0  0  0  0  0  0  0  0
   -5.5977   -1.7024    0.2674 H   0  0  0  0  0  0  0  0  0  0  0  0
   -6.0243   -0.7574   -1.1614 H   0  0  0  0  0  0  0  0  0  0  0  0
   -2.1103    1.4712   -0.7639 H   0  0  0  0  0  0  0  0  0  0  0  0
   -7.8608   -0.7261    0.4995 H   0  0  0  0  0  0  0  0  0  0  0  0
   -6.7777   -0.0438    1.7248 H   0  0  0  0  0  0  0  0  0  0  0  0
   -7.2071    0.9075    0.2893 H   0  0  0  0  0  0  0  0  0  0  0  0
    0.1412    1.8249   -0.0218 H   0  0  0  0  0  0  0  0  0  0  0  0
    0.5000    0.8491    1.4271 H   0  0  0  0  0  0  0  0  0  0  0  0
   -0.9056   -1.0537    0.4898 H   0  0  0  0  0  0  0  0  0  0  0  0
  1 10  1  0  0  0  0
  1 13  1  0  0  0  0
  2 10  2  0  0  0  0
  3  4  1  0  0  0  0
  3  7  1  0  0  0  0
  3  8  1  0  0  0  0
  3 15  1  0  0  0  0
  4 10  1  0  0  0  0
  4 16  1  0  0  0  0
  4 17  1  0  0  0  0
  5  6  1  0  0  0  0
  5  9  1  0  0  0  0
  5 18  1  0  0  0  0
  5 19  1  0  0  0  0
  6 11  1  0  0  0  0
  6 20  1  0  0  0  0
  6 21  1  0  0  0  0
  7 22  1  0  0  0  0
  7 23  1  0  0  0  0
  7 24  1  0  0  0  0
  8 25  1  0  0  0  0
  8 26  1  0  0  0  0
  8 27  1  0  0  0  0
  9 12  1  0  0  0  0
  9 28  1  0  0  0  0
  9 29  1  0  0  0  0
 11 14  2  0  0  0  0
 11 30  1  0  0  0  0
 12 31  1  0  0  0  0
 12 32  1  0  0  0  0
 12 33  1  0  0  0  0
 13 14  1  0  0  0  0
 13 34  1  0  0  0  0
 13 35  1  0  0  0  0
 14 36  1  0  0  0  0
M  END
> <PUBCHEM_COMPOUND_CID>
6366434

> <PUBCHEM_CONFORMER_RMSD>
0.8

> <PUBCHEM_CONFORMER_DIVERSEORDER>
1
174
141
10
144
110
192
234
46
218
85
23
84
2
115
204
102
122
47
87
229
51
109
71
163
119
165
66
5
148
36
208
31
164
12
209
132
35
6
62
107
155
81
4
181
168
13
223
9
116
226
145
153
134
88
158
56
136
54
64
193
197
50
178
11
75
200
222
19
131
99
191
111
184
188
167
97
233
21
70
78
172
91
120
39
160
60
219
133
146
61
15
100
101
55
140
129
127
40
135
156
183
180
159
123
30
69
231
63
83
196
80
48
179
59
187
147
137
126
198
3
227
38
65
151
53
235
130
33
225
52
43
32
14
215
171
37
177
213
176
157
42
220
29
112
117
58
195
26
149
214
79
190
150
201
16
34
175
105
230
104
232
154
142
114
161
8
25
27
206
113
139
94
90
77
189
57
224
152
143
49
216
20
221
186
17
202
68
162
210
93
205
67
103
228
121
118
185
98
212
169
89
86
166
138
194
72
203
73
207
217
7
28
108
76
44
45
173
22
170
41
18
125
128
96
95
124
106
24
92
82
74
211
199
182

> <PUBCHEM_MMFF94_PARTIAL_CHARGES>
10
1 -0.43
10 0.66
11 -0.29
13 0.42
14 -0.29
2 -0.57
30 0.15
36 0.15
4 0.06
6 0.14

> <PUBCHEM_EFFECTIVE_ROTOR_COUNT>
8

> <PUBCHEM_PHARMACOPHORE_FEATURES>
4
1 12 hydrophobe
1 2 acceptor
3 3 7 8 hydrophobe
4 5 6 9 11 hydrophobe

> <PUBCHEM_HEAVY_ATOM_COUNT>
14

> <PUBCHEM_ATOM_DEF_STEREO_COUNT>
0

> <PUBCHEM_ATOM_UDEF_STEREO_COUNT>
0

> <PUBCHEM_BOND_DEF_STEREO_COUNT>
1

> <PUBCHEM_BOND_UDEF_STEREO_COUNT>
0

> <PUBCHEM_ISOTOPIC_ATOM_COUNT>
0

> <PUBCHEM_COMPONENT_COUNT>
1

> <PUBCHEM_CACTVS_TAUTO_COUNT>
1

> <PUBCHEM_CONFORMER_ID>
006124E200000001

> <PUBCHEM_MMFF94_ENERGY>
6.0253

> <PUBCHEM_FEATURE_SELFOVERLAP>
20.298

> <PUBCHEM_SHAPE_FINGERPRINT>
117890 112 11312062041334372395
12596602 18 16917064482055645099
13533116 47 18413108342432179762
14123238 8 10737282459610734101
1420 363 16805327699930991465
14251718 22 13045947910714515843
14251764 18 17632293510679483821
14252887 29 17846783979868109470
14455015 7 18187088351787008675
14528608 73 10881406439068043451
16079462 125 13182740300057806731
17834072 33 18412262848561456599
17834076 25 9295289439208086397
17844677 252 18261116270704564117
20281389 69 18060423513278117873
20369508 70 18410852166452891104
20645477 70 18410858750495331350
20767249 213 11167940260631169855
21267235 1 18341052918043787158
220451 1 18411989087346035831
23402539 116 18335696135810448717
23557571 272 17095239181953519607
23590187 90 10663817469008915459
300161 21 10519982647787134845
3060560 45 15213020449364211970
42788 4 18343586261616716381
465052 167 18342181054942945022
4990 188 16950281780417832122
5104073 3 17845370110872925963
522135 26 18334296474403166244
5374978 207 16774078474972088064
542803 24 8935004767906751559
57483677 66 18411698807691740407

> <PUBCHEM_SHAPE_MULTIPOLES>
276.37
15.72
1.33
0.87
20.46
0.18
-0.01
4
2.43
-1.72
0.15
-0.37
0
-0.13

> <PUBCHEM_SHAPE_SELFOVERLAP>
510.916

> <PUBCHEM_SHAPE_VOLUME>
174.6

> <PUBCHEM_COORDINATE_TYPE>
2
5
10

$$$$
