6366072
  -OEChem-11232109023D

 36 35  0     1  0  0  0  0  0999 V2000
    0.3287   -0.3266   -0.0816 O   0  0  0  0  0  0  0  0  0  0  0  0
    1.6941    1.3129    0.7897 O   0  0  0  0  0  0  0  0  0  0  0  0
   -3.3361    0.4748    0.1277 C   0  0  0  0  0  0  0  0  0  0  0  0
   -4.6203   -0.2640   -0.2596 C   0  0  0  0  0  0  0  0  0  0  0  0
   -2.0645   -0.3126   -0.1846 C   0  0  0  0  0  0  0  0  0  0  0  0
   -5.8919    0.5344    0.0302 C   0  0  0  0  0  0  0  0  0  0  0  0
   -0.8170    0.4469    0.2473 C   0  0  0  0  0  0  0  0  0  0  0  0
   -7.1393   -0.2698   -0.3038 C   0  0  0  0  0  0  0  0  0  0  0  0
    2.6605   -0.7199   -0.1658 C   0  0  2  0  0  0  0  0  0  0  0  0
    1.5409    0.2263    0.2468 C   0  0  0  0  0  0  0  0  0  0  0  0
    2.5035   -2.0646    0.5369 C   0  0  0  0  0  0  0  0  0  0  0  0
    3.9894   -0.0966    0.1721 C   0  0  0  0  0  0  0  0  0  0  0  0
    4.9174    0.2197   -0.7434 C   0  0  0  0  0  0  0  0  0  0  0  0
    6.2346    0.8389   -0.4120 C   0  0  0  0  0  0  0  0  0  0  0  0
   -3.3037    1.4364   -0.3997 H   0  0  0  0  0  0  0  0  0  0  0  0
   -3.3667    0.7033    1.2003 H   0  0  0  0  0  0  0  0  0  0  0  0
   -4.6583   -1.2166    0.2836 H   0  0  0  0  0  0  0  0  0  0  0  0
   -4.5852   -0.5108   -1.3280 H   0  0  0  0  0  0  0  0  0  0  0  0
   -2.0080   -0.5296   -1.2584 H   0  0  0  0  0  0  0  0  0  0  0  0
   -2.0892   -1.2874    0.3181 H   0  0  0  0  0  0  0  0  0  0  0  0
   -5.9196    0.8167    1.0890 H   0  0  0  0  0  0  0  0  0  0  0  0
   -5.8888    1.4618   -0.5538 H   0  0  0  0  0  0  0  0  0  0  0  0
   -0.8405    0.6225    1.3293 H   0  0  0  0  0  0  0  0  0  0  0  0
   -0.7666    1.4113   -0.2719 H   0  0  0  0  0  0  0  0  0  0  0  0
    2.5809   -0.8625   -1.2509 H   0  0  0  0  0  0  0  0  0  0  0  0
   -7.1864   -1.1870    0.2917 H   0  0  0  0  0  0  0  0  0  0  0  0
   -7.1557   -0.5459   -1.3630 H   0  0  0  0  0  0  0  0  0  0  0  0
   -8.0373    0.3191   -0.0921 H   0  0  0  0  0  0  0  0  0  0  0  0
    2.4646   -1.9458    1.6261 H   0  0  0  0  0  0  0  0  0  0  0  0
    1.5791   -2.5663    0.2308 H   0  0  0  0  0  0  0  0  0  0  0  0
    3.3368   -2.7345    0.2974 H   0  0  0  0  0  0  0  0  0  0  0  0
    4.1956    0.0959    1.2230 H   0  0  0  0  0  0  0  0  0  0  0  0
    4.7220    0.0276   -1.7951 H   0  0  0  0  0  0  0  0  0  0  0  0
    6.3305    1.8040   -0.9186 H   0  0  0  0  0  0  0  0  0  0  0  0
    7.0473    0.1897   -0.7519 H   0  0  0  0  0  0  0  0  0  0  0  0
    6.3572    1.0043    0.6631 H   0  0  0  0  0  0  0  0  0  0  0  0
  1  7  1  0  0  0  0
  1 10  1  0  0  0  0
  2 10  2  0  0  0  0
  3  4  1  0  0  0  0
  3  5  1  0  0  0  0
  3 15  1  0  0  0  0
  3 16  1  0  0  0  0
  4  6  1  0  0  0  0
  4 17  1  0  0  0  0
  4 18  1  0  0  0  0
  5  7  1  0  0  0  0
  5 19  1  0  0  0  0
  5 20  1  0  0  0  0
  6  8  1  0  0  0  0
  6 21  1  0  0  0  0
  6 22  1  0  0  0  0
  7 23  1  0  0  0  0
  7 24  1  0  0  0  0
  8 26  1  0  0  0  0
  8 27  1  0  0  0  0
  8 28  1  0  0  0  0
  9 10  1  0  0  0  0
  9 11  1  0  0  0  0
  9 12  1  0  0  0  0
  9 25  1  0  0  0  0
 11 29  1  0  0  0  0
 11 30  1  0  0  0  0
 11 31  1  0  0  0  0
 12 13  2  0  0  0  0
 12 32  1  0  0  0  0
 13 14  1  0  0  0  0
 13 33  1  0  0  0  0
 14 34  1  0  0  0  0
 14 35  1  0  0  0  0
 14 36  1  0  0  0  0
M  END
> <PUBCHEM_COMPOUND_CID>
6366072

> <PUBCHEM_CONFORMER_RMSD>
0.8

> <PUBCHEM_CONFORMER_DIVERSEORDER>
1
119
208
174
7
279
122
329
303
118
316
436
289
55
2
313
334
283
14
266
242
154
43
430
200
252
295
56
110
211
389
44
331
378
400
284
244
300
435
150
125
136
22
388
126
152
319
194
280
220
370
137
50
16
113
234
293
307
427
175
311
196
288
145
352
394
229
332
434
106
228
412
369
3
411
28
87
377
158
6
426
336
103
215
398
345
325
371
231
415
15
326
65
375
32
320
265
421
333
342
109
89
397
186
38
173
250
41
433
139
4
33
70
298
384
437
26
281
58
222
102
428
46
290
348
357
201
79
100
40
330
68
169
273
192
112
302
239
323
438
224
127
432
156
36
367
42
81
12
27
247
213
184
360
130
99
191
53
312
21
439
155
294
414
226
164
129
274
256
183
74
107
52
161
314
132
39
402
308
11
181
96
373
383
114
374
51
277
91
261
233
124
422
269
347
354
258
10
346
94
276
264
180
419
350
69
391
128
340
23
372
236
210
221
408
92
399
225
54
123
116
86
170
322
343
292
104
29
339
176
216
431
207
395
165
364
353
385
299
121
63
5
198
361
75
13
263
287
359
18
380
324
413
423
35
301
115
253
392
396
197
24
185
187
66
77
315
195
159
286
177
166
72
338
310
84
206
82
368
238
98
172
267
246
8
429
272
95
403
379
344
60
133
241
376
219
358
171
101
341
317
93
143
111
9
19
140
80
235
227
410
243
157
141
73
418
366
386
259
167
407
305
134
199
351
278
297
254
45
151
76
34
387
49
31
362
393
420
62
425
142
417
88
59
232
365
30
409
202
309
363
85
318
356
291
20
64
83
209
355
381
153
78
262
144
162
178
168
285
138
57
406
405
268
163
148
179
240
117
37
230
188
245
217
321
382
193
282
47
48
304
190
131
270
189
17
248
335
416
404
337
204
182
203
327
257
328
349
223
424
275
255
160
214
237
90
260
120
390
135
251
25
149
146
61
71
97
67
147
205
249
306
271
108
401
296
218
212
105

> <PUBCHEM_MMFF94_PARTIAL_CHARGES>
10
1 -0.43
10 0.66
12 -0.29
13 -0.29
14 0.14
2 -0.57
32 0.15
33 0.15
7 0.28
9 0.2

> <PUBCHEM_EFFECTIVE_ROTOR_COUNT>
8

> <PUBCHEM_PHARMACOPHORE_FEATURES>
5
1 11 hydrophobe
1 14 hydrophobe
1 2 acceptor
1 8 hydrophobe
4 3 4 5 6 hydrophobe

> <PUBCHEM_HEAVY_ATOM_COUNT>
14

> <PUBCHEM_ATOM_DEF_STEREO_COUNT>
0

> <PUBCHEM_ATOM_UDEF_STEREO_COUNT>
1

> <PUBCHEM_BOND_DEF_STEREO_COUNT>
1

> <PUBCHEM_BOND_UDEF_STEREO_COUNT>
0

> <PUBCHEM_ISOTOPIC_ATOM_COUNT>
0

> <PUBCHEM_COMPONENT_COUNT>
1

> <PUBCHEM_CACTVS_TAUTO_COUNT>
1

> <PUBCHEM_CONFORMER_ID>
0061237800000001

> <PUBCHEM_MMFF94_ENERGY>
4.5545

> <PUBCHEM_FEATURE_SELFOVERLAP>
25.374

> <PUBCHEM_SHAPE_FINGERPRINT>
10968037 39 18410575098328670237
11287383 113 17095530612089408793
12091667 2 18342740720142696009
12714333 28 17894914040015928180
13533116 47 18342172211774269379
14123238 8 18411418397629223879
14123256 10 18410857663525668436
1420 363 14405186175193141741
14251718 22 18260830397517227141
14251764 18 18273215284203699737
14251764 46 18187083953866948550
15048467 5 18114184155154524292
15242433 33 18412262826496068879
17834072 33 18342455949976601045
17834072 8 17846498140877448421
17834076 25 18410012139004624917
20645477 70 18263642870646393818
20735858 18 12252179697567276084
21150785 3 17132116866141741188
220451 1 18131067126498393351
22224240 67 17822289123990490778
23035841 295 16988844968902975455
23402539 116 15574715836949331826
23402655 69 18411979139616085751
23521765 1 18342176669680744869
23559900 14 18339919428639484993
300161 21 18040150721473100131
3545911 37 18408885148582251505
42788 4 18341894087082480701
4463277 17 18273215296097246913
522135 26 18409445869215706603
59755656 215 14476969964829008557
6025842 7 18334012753475746394
8209 1 18272089400548408812

> <PUBCHEM_SHAPE_MULTIPOLES>
276.37
16.98
1.19
0.74
16.33
0.5
0
-2.3
-3.1
-1.2
0.19
-0.27
-0.03
-0.38

> <PUBCHEM_SHAPE_SELFOVERLAP>
510.511

> <PUBCHEM_SHAPE_VOLUME>
174.7

> <PUBCHEM_COORDINATE_TYPE>
2
5
10

$$$$
