6374524
  -OEChem-11232109113D

 38 37  0     1  0  0  0  0  0999 V2000
    3.9382    1.1059   -0.9958 O   0  0  0  0  0  0  0  0  0  0  0  0
   -0.6580   -1.4115   -0.9182 C   0  0  0  0  0  0  0  0  0  0  0  0
    0.2763   -2.4512   -0.2606 C   0  0  1  0  0  0  0  0  0  0  0  0
   -1.6553   -0.7348    0.0299 C   0  0  0  0  0  0  0  0  0  0  0  0
   -2.5630    0.2379   -0.7325 C   0  0  0  0  0  0  0  0  0  0  0  0
   -3.5423    1.0042    0.1760 C   0  0  0  0  0  0  0  0  0  0  0  0
    1.2930   -1.8570    0.7358 C   0  0  0  0  0  0  0  0  0  0  0  0
   -0.5241   -3.5656    0.4228 C   0  0  0  0  0  0  0  0  0  0  0  0
   -2.7629    1.7719    1.2469 C   0  0  0  0  0  0  0  0  0  0  0  0
   -4.4317    1.9714   -0.6066 C   0  0  0  0  0  0  0  0  0  0  0  0
    2.1978   -0.8215    0.1272 C   0  0  0  0  0  0  0  0  0  0  0  0
    2.2128    0.4607    0.5151 C   0  0  0  0  0  0  0  0  0  0  0  0
    3.1406    1.4356   -0.1211 C   0  0  0  0  0  0  0  0  0  0  0  0
    3.0784    2.8540    0.3811 C   0  0  0  0  0  0  0  0  0  0  0  0
   -0.0607   -0.6464   -1.4284 H   0  0  0  0  0  0  0  0  0  0  0  0
   -1.2256   -1.9205   -1.7089 H   0  0  0  0  0  0  0  0  0  0  0  0
    0.8464   -2.9181   -1.0761 H   0  0  0  0  0  0  0  0  0  0  0  0
   -2.2825   -1.4797    0.5304 H   0  0  0  0  0  0  0  0  0  0  0  0
   -1.0863   -0.2083    0.8004 H   0  0  0  0  0  0  0  0  0  0  0  0
   -3.1365   -0.3192   -1.4840 H   0  0  0  0  0  0  0  0  0  0  0  0
   -1.9419    0.9564   -1.2832 H   0  0  0  0  0  0  0  0  0  0  0  0
   -4.1954    0.2798    0.6790 H   0  0  0  0  0  0  0  0  0  0  0  0
    1.9283   -2.6633    1.1247 H   0  0  0  0  0  0  0  0  0  0  0  0
    0.7657   -1.4439    1.6048 H   0  0  0  0  0  0  0  0  0  0  0  0
    0.1407   -4.3842    0.7202 H   0  0  0  0  0  0  0  0  0  0  0  0
   -1.0306   -3.2114    1.3261 H   0  0  0  0  0  0  0  0  0  0  0  0
   -1.2764   -3.9808   -0.2559 H   0  0  0  0  0  0  0  0  0  0  0  0
   -1.9738    2.3899    0.8051 H   0  0  0  0  0  0  0  0  0  0  0  0
   -2.3099    1.0992    1.9810 H   0  0  0  0  0  0  0  0  0  0  0  0
   -3.4308    2.4355    1.8078 H   0  0  0  0  0  0  0  0  0  0  0  0
   -5.1425    2.4746    0.0572 H   0  0  0  0  0  0  0  0  0  0  0  0
   -5.0067    1.4347   -1.3683 H   0  0  0  0  0  0  0  0  0  0  0  0
   -3.8346    2.7386   -1.1112 H   0  0  0  0  0  0  0  0  0  0  0  0
    2.8629   -1.1694   -0.6590 H   0  0  0  0  0  0  0  0  0  0  0  0
    1.5560    0.8212    1.2989 H   0  0  0  0  0  0  0  0  0  0  0  0
    2.1265    3.0566    0.8794 H   0  0  0  0  0  0  0  0  0  0  0  0
    3.8986    3.0255    1.0827 H   0  0  0  0  0  0  0  0  0  0  0  0
    3.1641    3.5390   -0.4672 H   0  0  0  0  0  0  0  0  0  0  0  0
  1 13  2  0  0  0  0
  2  3  1  0  0  0  0
  2  4  1  0  0  0  0
  2 15  1  0  0  0  0
  2 16  1  0  0  0  0
  3  7  1  0  0  0  0
  3  8  1  0  0  0  0
  3 17  1  0  0  0  0
  4  5  1  0  0  0  0
  4 18  1  0  0  0  0
  4 19  1  0  0  0  0
  5  6  1  0  0  0  0
  5 20  1  0  0  0  0
  5 21  1  0  0  0  0
  6  9  1  0  0  0  0
  6 10  1  0  0  0  0
  6 22  1  0  0  0  0
  7 11  1  0  0  0  0
  7 23  1  0  0  0  0
  7 24  1  0  0  0  0
  8 25  1  0  0  0  0
  8 26  1  0  0  0  0
  8 27  1  0  0  0  0
  9 28  1  0  0  0  0
  9 29  1  0  0  0  0
  9 30  1  0  0  0  0
 10 31  1  0  0  0  0
 10 32  1  0  0  0  0
 10 33  1  0  0  0  0
 11 12  2  0  0  0  0
 11 34  1  0  0  0  0
 12 13  1  0  0  0  0
 12 35  1  0  0  0  0
 13 14  1  0  0  0  0
 14 36  1  0  0  0  0
 14 37  1  0  0  0  0
 14 38  1  0  0  0  0
M  END
> <PUBCHEM_COMPOUND_CID>
6374524

> <PUBCHEM_CONFORMER_RMSD>
0.8

> <PUBCHEM_CONFORMER_DIVERSEORDER>
4
44
72
34
47
64
48
77
41
86
13
11
15
36
53
69
55
81
29
83
58
3
89
46
63
75
20
27
57
54
12
42
74
38
40
67
9
28
70
19
85
52
51
39
73
37
43
87
23
82
8
18
49
17
14
59
30
31
56
88
50
68
24
22
5
84
6
76
7
16
66
25
62
35
32
61
60
78
80
71
33
26
65
1
79
21
2
10
45

> <PUBCHEM_MMFF94_PARTIAL_CHARGES>
8
1 -0.57
11 -0.29
12 -0.14
13 0.49
14 0.06
34 0.15
35 0.15
7 0.14

> <PUBCHEM_EFFECTIVE_ROTOR_COUNT>
7

> <PUBCHEM_PHARMACOPHORE_FEATURES>
3
1 1 acceptor
1 8 hydrophobe
3 6 9 10 hydrophobe

> <PUBCHEM_HEAVY_ATOM_COUNT>
14

> <PUBCHEM_ATOM_DEF_STEREO_COUNT>
0

> <PUBCHEM_ATOM_UDEF_STEREO_COUNT>
1

> <PUBCHEM_BOND_DEF_STEREO_COUNT>
1

> <PUBCHEM_BOND_UDEF_STEREO_COUNT>
0

> <PUBCHEM_ISOTOPIC_ATOM_COUNT>
0

> <PUBCHEM_COMPONENT_COUNT>
1

> <PUBCHEM_CACTVS_TAUTO_COUNT>
5

> <PUBCHEM_CONFORMER_ID>
0061447C00000004

> <PUBCHEM_MMFF94_ENERGY>
14.8928

> <PUBCHEM_FEATURE_SELFOVERLAP>
15.223

> <PUBCHEM_SHAPE_FINGERPRINT>
10498660 4 18413386544812836557
10681291 71 18338811068862198621
12173636 292 18194398029347363110
13618510 140 18412826871708179737
13764800 53 18118683459514165210
14123250 116 18270395126144488997
14123255 52 18410290345574890620
14251764 75 18340779195024974081
15342168 16 18334013878561557893
15775835 57 18410012134736219924
17134986 127 18411981351682550782
1741750 31 18340483486525533490
17834072 32 18411419539727066929
1798214 55 18411415128806177520
20304884 271 18340204223441207806
20510252 161 17760646262830814130
20539926 19 18413108359659411144
20605781 55 18410291436485820019
20621476 13 17974838485164121109
20621476 82 17119990575801071160
20671657 1 18340767022759777854
21041028 32 17399507927666264110
21524375 3 18412537704339761318
21639500 275 18193822770196662173
21665062 11 17620203031269289851
22182937 141 18268154347179988120
2255824 54 18052536573979016767
23532345 1 18264768749705575697
23558518 356 18261669384734880746
2637199 183 18271258143993274548
31174 14 17901384490136736423
474 4 18338794490736510763
6333272 397 18411418371981005835
81539 233 18335981952798433831
8199 26 18339358677361302140

> <PUBCHEM_SHAPE_MULTIPOLES>
282.24
7.3
3.87
0.99
2.55
1.81
0.04
-8.13
-0.84
-1.06
0.55
0.23
-0.14
-0.34

> <PUBCHEM_SHAPE_SELFOVERLAP>
521.121

> <PUBCHEM_SHAPE_VOLUME>
178.9

> <PUBCHEM_COORDINATE_TYPE>
2
5
10

$$$$
