637528
  -OEChem-11232108583D

 17 17  0     1  0  0  0  0  0999 V2000
   -0.1380   -1.0488   -0.0237 O   0  0  0  0  0  0  0  0  0  0  0  0
    2.5839   -0.3719   -0.1385 O   0  0  0  0  0  0  0  0  0  0  0  0
    0.3067    0.2811   -0.3404 C   0  0  1  0  0  0  0  0  0  0  0  0
   -0.8064    1.2159    0.1006 C   0  0  0  0  0  0  0  0  0  0  0  0
   -2.0290    0.3743   -0.1667 C   0  0  0  0  0  0  0  0  0  0  0  0
   -1.5506   -1.0068    0.2284 C   0  0  0  0  0  0  0  0  0  0  0  0
    1.6334    0.5562    0.3403 C   0  0  0  0  0  0  0  0  0  0  0  0
    0.4293    0.3133   -1.4302 H   0  0  0  0  0  0  0  0  0  0  0  0
   -0.8046    2.1648   -0.4428 H   0  0  0  0  0  0  0  0  0  0  0  0
   -0.7367    1.4331    1.1734 H   0  0  0  0  0  0  0  0  0  0  0  0
   -2.9145    0.6944    0.3884 H   0  0  0  0  0  0  0  0  0  0  0  0
   -2.2683    0.3957   -1.2365 H   0  0  0  0  0  0  0  0  0  0  0  0
   -1.7027   -1.1878    1.2977 H   0  0  0  0  0  0  0  0  0  0  0  0
   -2.0494   -1.8008   -0.3345 H   0  0  0  0  0  0  0  0  0  0  0  0
    1.5525    0.4230    1.4242 H   0  0  0  0  0  0  0  0  0  0  0  0
    1.9832    1.5704    0.1246 H   0  0  0  0  0  0  0  0  0  0  0  0
    3.4256   -0.1789    0.3086 H   0  0  0  0  0  0  0  0  0  0  0  0
  1  3  1  0  0  0  0
  1  6  1  0  0  0  0
  2  7  1  0  0  0  0
  2 17  1  0  0  0  0
  3  4  1  0  0  0  0
  3  7  1  0  0  0  0
  3  8  1  0  0  0  0
  4  5  1  0  0  0  0
  4  9  1  0  0  0  0
  4 10  1  0  0  0  0
  5  6  1  0  0  0  0
  5 11  1  0  0  0  0
  5 12  1  0  0  0  0
  6 13  1  0  0  0  0
  6 14  1  0  0  0  0
  7 15  1  0  0  0  0
  7 16  1  0  0  0  0
M  END
> <PUBCHEM_COMPOUND_CID>
637528

> <PUBCHEM_CONFORMER_RMSD>
0.4

> <PUBCHEM_CONFORMER_DIVERSEORDER>
1
5
2
3
4

> <PUBCHEM_MMFF94_PARTIAL_CHARGES>
6
1 -0.56
17 0.4
2 -0.68
3 0.28
6 0.28
7 0.28

> <PUBCHEM_EFFECTIVE_ROTOR_COUNT>
2

> <PUBCHEM_PHARMACOPHORE_FEATURES>
4
1 1 acceptor
1 2 acceptor
1 2 donor
5 1 3 4 5 6 rings

> <PUBCHEM_HEAVY_ATOM_COUNT>
7

> <PUBCHEM_ATOM_DEF_STEREO_COUNT>
1

> <PUBCHEM_ATOM_UDEF_STEREO_COUNT>
0

> <PUBCHEM_BOND_DEF_STEREO_COUNT>
0

> <PUBCHEM_BOND_UDEF_STEREO_COUNT>
0

> <PUBCHEM_ISOTOPIC_ATOM_COUNT>
0

> <PUBCHEM_COMPONENT_COUNT>
1

> <PUBCHEM_CACTVS_TAUTO_COUNT>
1

> <PUBCHEM_CONFORMER_ID>
0009BA5800000001

> <PUBCHEM_MMFF94_ENERGY>
10.4091

> <PUBCHEM_FEATURE_SELFOVERLAP>
20.301

> <PUBCHEM_SHAPE_FINGERPRINT>
16714656 1 18408042905099984005
20096714 4 18411134706038068305
21040471 1 18265051340761957581
23552423 10 18187366562287900414
24536 1 18337377357386781900
29004967 10 16630813209431878028
369184 2 15195562390394501090
5460574 1 9295291642389211164

> <PUBCHEM_SHAPE_MULTIPOLES>
132.32
2.87
1.19
0.64
1.26
0
-0.01
0.22
-0.01
-0.34
-0.06
-0.01
-0.03
0.12

> <PUBCHEM_SHAPE_SELFOVERLAP>
254.514

> <PUBCHEM_SHAPE_VOLUME>
82.6

> <PUBCHEM_COORDINATE_TYPE>
2
5
10

$$$$
