637522
  -OEChem-11232108563D

 37 36  0     1  0  0  0  0  0999 V2000
    4.6750    2.0446   -0.0320 O   0  0  0  0  0  0  0  0  0  0  0  0
    0.4052   -0.6909    0.0679 C   0  0  0  0  0  0  0  0  0  0  0  0
   -0.8246    0.1541   -0.2785 C   0  0  0  0  0  0  0  0  0  0  0  0
    1.7647   -0.0559   -0.2423 C   0  0  0  0  0  0  0  0  0  0  0  0
   -2.1481   -0.5061    0.1129 C   0  0  0  0  0  0  0  0  0  0  0  0
    2.9532   -0.9632    0.0974 C   0  0  0  0  0  0  0  0  0  0  0  0
   -3.3404    0.3843   -0.2491 C   0  0  0  0  0  0  0  0  0  0  0  0
    4.2981   -0.3277   -0.2809 C   0  0  2  0  0  0  0  0  0  0  0  0
   -4.6618   -0.2621    0.1728 C   0  0  0  0  0  0  0  0  0  0  0  0
   -5.8865    0.5988   -0.1443 C   0  0  0  0  0  0  0  0  0  0  0  0
    5.4534   -1.2755    0.0268 C   0  0  0  0  0  0  0  0  0  0  0  0
    4.5160    0.9502    0.4998 C   0  0  0  0  0  0  0  0  0  0  0  0
   -7.2042   -0.0506    0.2495 C   0  0  0  0  0  0  0  0  0  0  0  0
    0.3327   -1.6461   -0.4677 H   0  0  0  0  0  0  0  0  0  0  0  0
    0.3730   -0.9347    1.1376 H   0  0  0  0  0  0  0  0  0  0  0  0
   -0.7414    1.1238    0.2278 H   0  0  0  0  0  0  0  0  0  0  0  0
   -0.8231    0.3591   -1.3561 H   0  0  0  0  0  0  0  0  0  0  0  0
    1.7997    0.2006   -1.3084 H   0  0  0  0  0  0  0  0  0  0  0  0
    1.8409    0.8862    0.3132 H   0  0  0  0  0  0  0  0  0  0  0  0
   -2.2408   -1.4728   -0.3964 H   0  0  0  0  0  0  0  0  0  0  0  0
   -2.1509   -0.7062    1.1912 H   0  0  0  0  0  0  0  0  0  0  0  0
    2.8409   -1.9165   -0.4337 H   0  0  0  0  0  0  0  0  0  0  0  0
    2.9321   -1.1898    1.1710 H   0  0  0  0  0  0  0  0  0  0  0  0
   -3.3500    0.5685   -1.3300 H   0  0  0  0  0  0  0  0  0  0  0  0
   -3.2369    1.3579    0.2450 H   0  0  0  0  0  0  0  0  0  0  0  0
    4.3075   -0.0840   -1.3499 H   0  0  0  0  0  0  0  0  0  0  0  0
   -4.7654   -1.2319   -0.3297 H   0  0  0  0  0  0  0  0  0  0  0  0
   -4.6388   -0.4655    1.2507 H   0  0  0  0  0  0  0  0  0  0  0  0
   -5.7971    1.5614    0.3731 H   0  0  0  0  0  0  0  0  0  0  0  0
   -5.9081    0.8167   -1.2188 H   0  0  0  0  0  0  0  0  0  0  0  0
    5.3598   -2.2031   -0.5473 H   0  0  0  0  0  0  0  0  0  0  0  0
    5.4873   -1.5345    1.0911 H   0  0  0  0  0  0  0  0  0  0  0  0
    6.4135   -0.8139   -0.2293 H   0  0  0  0  0  0  0  0  0  0  0  0
    4.5272    0.8502    1.5993 H   0  0  0  0  0  0  0  0  0  0  0  0
   -8.0423    0.6078    0.0007 H   0  0  0  0  0  0  0  0  0  0  0  0
   -7.2343   -0.2500    1.3252 H   0  0  0  0  0  0  0  0  0  0  0  0
   -7.3456   -0.9981   -0.2798 H   0  0  0  0  0  0  0  0  0  0  0  0
  1 12  2  0  0  0  0
  2  3  1  0  0  0  0
  2  4  1  0  0  0  0
  2 14  1  0  0  0  0
  2 15  1  0  0  0  0
  3  5  1  0  0  0  0
  3 16  1  0  0  0  0
  3 17  1  0  0  0  0
  4  6  1  0  0  0  0
  4 18  1  0  0  0  0
  4 19  1  0  0  0  0
  5  7  1  0  0  0  0
  5 20  1  0  0  0  0
  5 21  1  0  0  0  0
  6  8  1  0  0  0  0
  6 22  1  0  0  0  0
  6 23  1  0  0  0  0
  7  9  1  0  0  0  0
  7 24  1  0  0  0  0
  7 25  1  0  0  0  0
  8 11  1  0  0  0  0
  8 12  1  0  0  0  0
  8 26  1  0  0  0  0
  9 10  1  0  0  0  0
  9 27  1  0  0  0  0
  9 28  1  0  0  0  0
 10 13  1  0  0  0  0
 10 29  1  0  0  0  0
 10 30  1  0  0  0  0
 11 31  1  0  0  0  0
 11 32  1  0  0  0  0
 11 33  1  0  0  0  0
 12 34  1  0  0  0  0
 13 35  1  0  0  0  0
 13 36  1  0  0  0  0
 13 37  1  0  0  0  0
M  END
> <PUBCHEM_COMPOUND_CID>
637522

> <PUBCHEM_CONFORMER_RMSD>
0.8

> <PUBCHEM_CONFORMER_DIVERSEORDER>
1
246
90
206
78
6
218
302
63
142
40
73
9
224
276
46
277
321
92
217
18
80
328
51
84
296
232
26
151
138
260
154
70
24
88
152
312
134
306
124
297
67
233
227
113
275
141
324
210
44
208
2
148
229
190
322
68
251
16
166
112
303
32
52
216
310
53
145
39
125
109
265
48
42
86
242
163
237
172
155
38
298
81
295
62
195
17
30
273
204
71
160
290
13
250
181
289
58
116
49
137
220
316
266
117
187
326
72
157
118
281
239
292
111
207
79
33
131
234
285
243
287
254
176
64
106
129
54
269
96
143
205
41
305
21
65
35
153
85
222
317
101
191
170
28
82
175
75
126
307
315
27
8
180
267
47
25
188
283
130
248
189
174
93
193
253
223
197
135
235
107
45
293
23
196
240
150
311
268
212
262
7
308
203
102
83
123
214
161
201
12
34
257
19
309
103
60
178
280
325
74
304
159
241
57
299
87
3
194
37
147
319
127
301
263
15
104
95
179
158
133
144
215
313
183
146
31
136
56
300
318
36
105
22
314
177
184
272
114
132
162
121
271
320
4
192
209
231
282
97
43
10
5
258
247
259
165
261
171
20
29
199
55
139
185
77
99
128
255
91
279
108
213
219
89
164
211
11
238
329
14
286
110
169
120
69
173
245
278
66
119
291
98
323
249
76
61
230
327
288
122
94
115
167
264
244
50
156
59
228
294
100
284
168
236
226
198
200
330
186
225
182
256
202
270
149
274
140
221
252

> <PUBCHEM_MMFF94_PARTIAL_CHARGES>
4
1 -0.57
12 0.45
34 0.06
8 0.06

> <PUBCHEM_EFFECTIVE_ROTOR_COUNT>
9

> <PUBCHEM_PHARMACOPHORE_FEATURES>
3
1 1 acceptor
1 11 hydrophobe
1 13 hydrophobe

> <PUBCHEM_HEAVY_ATOM_COUNT>
13

> <PUBCHEM_ATOM_DEF_STEREO_COUNT>
1

> <PUBCHEM_ATOM_UDEF_STEREO_COUNT>
0

> <PUBCHEM_BOND_DEF_STEREO_COUNT>
0

> <PUBCHEM_BOND_UDEF_STEREO_COUNT>
0

> <PUBCHEM_ISOTOPIC_ATOM_COUNT>
0

> <PUBCHEM_COMPONENT_COUNT>
1

> <PUBCHEM_CACTVS_TAUTO_COUNT>
2

> <PUBCHEM_CONFORMER_ID>
0009BA5200000001

> <PUBCHEM_MMFF94_ENERGY>
2.337

> <PUBCHEM_FEATURE_SELFOVERLAP>
15.223

> <PUBCHEM_SHAPE_FINGERPRINT>
11287383 113 18410575106264684955
13081056 2 18335136479864821636
13167372 99 18272655597687399993
13533116 47 17385997317767495586
14123238 8 13406796614185090127
1420 363 18186524293642373603
14251718 22 18342738529435211375
14251732 16 18337954597208080531
14251764 46 18201999911266146667
15716309 27 18272089418651677847
17834072 33 18131066060755419879
17834076 25 17060337409954082519
20281389 69 18335138674862316905
20645477 70 18271808965397402382
20767249 213 18342458153822260055
21130983 4 18273218603902352065
212847 35 18060698403568485272
220451 1 12107793999207273465
22896161 15 18339642343525584343
23402539 116 18343014493879184895
23521765 1 18341895173740972039
23557571 272 17023466335066817551
3545911 37 18113338591662588603
42788 4 18411418397708397151
4463277 17 18412263922461627113
522135 26 18202001023905236982
5374978 207 18187358827326113520
542803 24 17489590060751960699
54446538 1 18343584010225886320
8209 1 18334296448564979030

> <PUBCHEM_SHAPE_MULTIPOLES>
261.66
17.98
1.23
0.66
17.42
0.42
-0.01
1.49
-1.13
-2.16
-0.04
-0.02
0.01
0.26

> <PUBCHEM_SHAPE_SELFOVERLAP>
470.18

> <PUBCHEM_SHAPE_VOLUME>
169

> <PUBCHEM_COORDINATE_TYPE>
2
5
10

$$$$
