638097
  -OEChem-11232109063D

 21 20  0     1  0  0  0  0  0999 V2000
    1.7548    1.3382    0.2470 O   0  0  0  0  0  0  0  0  0  0  0  0
    0.3228   -0.5898    0.1656 C   0  0  0  0  0  0  0  0  0  0  0  0
   -0.9281    0.1998   -0.2214 C   0  0  0  0  0  0  0  0  0  0  0  0
    1.6246    0.0422   -0.3382 C   0  0  2  0  0  0  0  0  0  0  0  0
   -2.1969   -0.4941    0.2762 C   0  0  0  0  0  0  0  0  0  0  0  0
    2.8694   -0.7659    0.0029 C   0  0  0  0  0  0  0  0  0  0  0  0
   -3.4465    0.2696   -0.1321 C   0  0  0  0  0  0  0  0  0  0  0  0
    0.3601   -0.6653    1.2600 H   0  0  0  0  0  0  0  0  0  0  0  0
    0.2445   -1.6108   -0.2276 H   0  0  0  0  0  0  0  0  0  0  0  0
   -0.8868    1.2092    0.2034 H   0  0  0  0  0  0  0  0  0  0  0  0
   -0.9698    0.3074   -1.3120 H   0  0  0  0  0  0  0  0  0  0  0  0
    1.5812    0.1699   -1.4263 H   0  0  0  0  0  0  0  0  0  0  0  0
   -2.2499   -1.5107   -0.1308 H   0  0  0  0  0  0  0  0  0  0  0  0
   -2.1691   -0.5827    1.3685 H   0  0  0  0  0  0  0  0  0  0  0  0
    3.7681   -0.2559   -0.3601 H   0  0  0  0  0  0  0  0  0  0  0  0
    2.8277   -1.7642   -0.4426 H   0  0  0  0  0  0  0  0  0  0  0  0
    2.9817   -0.8694    1.0877 H   0  0  0  0  0  0  0  0  0  0  0  0
   -3.4413    1.2818    0.2846 H   0  0  0  0  0  0  0  0  0  0  0  0
   -3.5209    0.3466   -1.2216 H   0  0  0  0  0  0  0  0  0  0  0  0
   -4.3410   -0.2440    0.2338 H   0  0  0  0  0  0  0  0  0  0  0  0
    1.1281    1.9307   -0.2013 H   0  0  0  0  0  0  0  0  0  0  0  0
  1  4  1  0  0  0  0
  1 21  1  0  0  0  0
  2  3  1  0  0  0  0
  2  4  1  0  0  0  0
  2  8  1  0  0  0  0
  2  9  1  0  0  0  0
  3  5  1  0  0  0  0
  3 10  1  0  0  0  0
  3 11  1  0  0  0  0
  4  6  1  0  0  0  0
  4 12  1  0  0  0  0
  5  7  1  0  0  0  0
  5 13  1  0  0  0  0
  5 14  1  0  0  0  0
  6 15  1  0  0  0  0
  6 16  1  0  0  0  0
  6 17  1  0  0  0  0
  7 18  1  0  0  0  0
  7 19  1  0  0  0  0
  7 20  1  0  0  0  0
M  END
> <PUBCHEM_COMPOUND_CID>
638097

> <PUBCHEM_CONFORMER_RMSD>
0.4

> <PUBCHEM_CONFORMER_DIVERSEORDER>
2
14
1
15
11
13
3
4
9
7
8
6
5
10
12

> <PUBCHEM_MMFF94_PARTIAL_CHARGES>
3
1 -0.68
21 0.4
4 0.28

> <PUBCHEM_EFFECTIVE_ROTOR_COUNT>
3

> <PUBCHEM_PHARMACOPHORE_FEATURES>
3
1 1 acceptor
1 1 donor
1 7 hydrophobe

> <PUBCHEM_HEAVY_ATOM_COUNT>
7

> <PUBCHEM_ATOM_DEF_STEREO_COUNT>
1

> <PUBCHEM_ATOM_UDEF_STEREO_COUNT>
0

> <PUBCHEM_BOND_DEF_STEREO_COUNT>
0

> <PUBCHEM_BOND_UDEF_STEREO_COUNT>
0

> <PUBCHEM_ISOTOPIC_ATOM_COUNT>
0

> <PUBCHEM_COMPONENT_COUNT>
1

> <PUBCHEM_CACTVS_TAUTO_COUNT>
1

> <PUBCHEM_CONFORMER_ID>
0009BC9100000002

> <PUBCHEM_MMFF94_ENERGY>
1.3501

> <PUBCHEM_FEATURE_SELFOVERLAP>
15.223

> <PUBCHEM_SHAPE_FINGERPRINT>
11062470 55 13183016311250599483
12932741 1 18187370964550225115
12932764 1 17530674416498887395
14325111 11 18409730694382926607
14390081 3 18408601474666876209
20651381 32 18410854347863539981
29004967 10 18272937094175538714
3248919 1 17060348430687183311
5460574 1 9295289434791884263

> <PUBCHEM_SHAPE_MULTIPOLES>
138.19
5.18
0.98
0.65
2.09
0.18
0.01
-0.19
0.09
-0.45
-0.08
0.01
0
0.14

> <PUBCHEM_SHAPE_SELFOVERLAP>
238.663

> <PUBCHEM_SHAPE_VOLUME>
93

> <PUBCHEM_COORDINATE_TYPE>
2
5
10

$$$$
