6393846
  -OEChem-11232109413D

 23 23  0     0  0  0  0  0  0999 V2000
    4.0131   -0.7425   -0.0798 O   0  0  0  0  0  0  0  0  0  0  0  0
    1.8544    0.2795   -0.0158 C   0  0  0  0  0  0  0  0  0  0  0  0
   -0.6049    0.0697    0.4309 C   0  0  0  0  0  0  0  0  0  0  0  0
    0.8021    0.2050    0.8220 C   0  0  0  0  0  0  0  0  0  0  0  0
    3.2951    0.3808    0.4130 C   0  0  0  0  0  0  0  0  0  0  0  0
    1.6360    0.2249   -1.5058 C   0  0  0  0  0  0  0  0  0  0  0  0
   -1.3686    1.2094    0.2139 C   0  0  0  0  0  0  0  0  0  0  0  0
   -1.1564   -1.1963    0.2819 C   0  0  0  0  0  0  0  0  0  0  0  0
   -2.7067    1.0808   -0.1587 C   0  0  0  0  0  0  0  0  0  0  0  0
   -2.4945   -1.3249   -0.0907 C   0  0  0  0  0  0  0  0  0  0  0  0
   -3.2695   -0.1862   -0.3109 C   0  0  0  0  0  0  0  0  0  0  0  0
    0.9720    0.2318    1.8960 H   0  0  0  0  0  0  0  0  0  0  0  0
    3.3982    0.4073    1.5026 H   0  0  0  0  0  0  0  0  0  0  0  0
    3.7508    1.2900    0.0086 H   0  0  0  0  0  0  0  0  0  0  0  0
    2.1320    1.0775   -1.9829 H   0  0  0  0  0  0  0  0  0  0  0  0
    0.5895    0.2588   -1.8183 H   0  0  0  0  0  0  0  0  0  0  0  0
    2.0674   -0.6935   -1.9181 H   0  0  0  0  0  0  0  0  0  0  0  0
   -0.9426    2.2027    0.3290 H   0  0  0  0  0  0  0  0  0  0  0  0
   -0.5637   -2.0918    0.4503 H   0  0  0  0  0  0  0  0  0  0  0  0
   -3.3104    1.9673   -0.3302 H   0  0  0  0  0  0  0  0  0  0  0  0
   -2.9329   -2.3114   -0.2094 H   0  0  0  0  0  0  0  0  0  0  0  0
   -4.3113   -0.2864   -0.6012 H   0  0  0  0  0  0  0  0  0  0  0  0
    3.6191   -1.5403    0.3133 H   0  0  0  0  0  0  0  0  0  0  0  0
  1  5  1  0  0  0  0
  1 23  1  0  0  0  0
  2  4  2  0  0  0  0
  2  5  1  0  0  0  0
  2  6  1  0  0  0  0
  3  4  1  0  0  0  0
  3  7  2  0  0  0  0
  3  8  1  0  0  0  0
  4 12  1  0  0  0  0
  5 13  1  0  0  0  0
  5 14  1  0  0  0  0
  6 15  1  0  0  0  0
  6 16  1  0  0  0  0
  6 17  1  0  0  0  0
  7  9  1  0  0  0  0
  7 18  1  0  0  0  0
  8 10  2  0  0  0  0
  8 19  1  0  0  0  0
  9 11  2  0  0  0  0
  9 20  1  0  0  0  0
 10 11  1  0  0  0  0
 10 21  1  0  0  0  0
 11 22  1  0  0  0  0
M  END
> <PUBCHEM_COMPOUND_CID>
6393846

> <PUBCHEM_CONFORMER_RMSD>
0.4

> <PUBCHEM_CONFORMER_DIVERSEORDER>
1
3
2

> <PUBCHEM_MMFF94_PARTIAL_CHARGES>
18
1 -0.68
10 -0.15
11 -0.15
12 0.15
18 0.15
19 0.15
2 -0.28
20 0.15
21 0.15
22 0.15
23 0.4
3 0.03
4 -0.18
5 0.42
6 0.14
7 -0.15
8 -0.15
9 -0.15

> <PUBCHEM_EFFECTIVE_ROTOR_COUNT>
2

> <PUBCHEM_PHARMACOPHORE_FEATURES>
4
1 1 acceptor
1 1 donor
1 6 hydrophobe
6 3 7 8 9 10 11 rings

> <PUBCHEM_HEAVY_ATOM_COUNT>
11

> <PUBCHEM_ATOM_DEF_STEREO_COUNT>
0

> <PUBCHEM_ATOM_UDEF_STEREO_COUNT>
0

> <PUBCHEM_BOND_DEF_STEREO_COUNT>
1

> <PUBCHEM_BOND_UDEF_STEREO_COUNT>
0

> <PUBCHEM_ISOTOPIC_ATOM_COUNT>
0

> <PUBCHEM_COMPONENT_COUNT>
1

> <PUBCHEM_CACTVS_TAUTO_COUNT>
1

> <PUBCHEM_CONFORMER_ID>
00618FF600000001

> <PUBCHEM_MMFF94_ENERGY>
27.1063

> <PUBCHEM_FEATURE_SELFOVERLAP>
20.297

> <PUBCHEM_SHAPE_FINGERPRINT>
10219947 1 16343701045533256760
11031198 65 14273730737981892258
11062470 55 16845574218515429249
12716758 59 18410570703981151091
12932764 1 18340778125471452864
13024252 1 17675925408966165035
14325111 11 18411134736303247584
14993402 34 17385720296418474111
15775835 57 18114460063605783673
16945 1 18410580599870604897
18186145 218 16732982059062592820
20201158 50 17704075087847724735
20279233 1 17489592259558958149
20645464 45 17917997174339390699
20645476 183 17676198087776487731
20653085 51 16226045630359626231
21061003 4 16559036016570853896
21119208 17 17894344475723109367
23402539 116 18200864102548148445
23552423 10 18115019698018701483
23559900 14 18343014472594096488
29004967 10 16559038207004174545
3248919 1 17274834557479087456
369184 2 18272370888489032201
5084963 1 17385718131897329661
57812782 119 18201997724921882822
74978 22 16660654002428425760

> <PUBCHEM_SHAPE_MULTIPOLES>
220.51
5.91
1.22
0.94
3.31
0.09
0.25
0.57
0.4
-0.79
-0.03
0.39
-0.06
0.02

> <PUBCHEM_SHAPE_SELFOVERLAP>
449.694

> <PUBCHEM_SHAPE_VOLUME>
128.5

> <PUBCHEM_COORDINATE_TYPE>
2
5
10

$$$$
