6420388
  -OEChem-11232109003D

 24 23  0     0  0  0  0  0  0999 V2000
   -2.5103    1.0722   -1.3666 S   0  0  0  0  0  0  0  0  0  0  0  0
    1.5492   -0.5989   -0.0743 O   0  0  0  0  0  0  0  0  0  0  0  0
    2.8316    1.3052    0.1840 O   0  0  0  0  0  0  0  0  0  0  0  0
   -2.2422   -0.0673    0.0515 C   0  0  0  0  0  0  0  0  0  0  0  0
   -0.8574   -0.7467   -0.0474 C   0  0  0  0  0  0  0  0  0  0  0  0
   -2.3938    0.7412    1.3457 C   0  0  0  0  0  0  0  0  0  0  0  0
   -3.3385   -1.1423   -0.0078 C   0  0  0  0  0  0  0  0  0  0  0  0
    0.3596    0.1718    0.0650 C   0  0  0  0  0  0  0  0  0  0  0  0
    2.7208    0.0997    0.0062 C   0  0  0  0  0  0  0  0  0  0  0  0
    3.8811   -0.8348   -0.1564 C   0  0  0  0  0  0  0  0  0  0  0  0
   -0.7826   -1.3156   -0.9849 H   0  0  0  0  0  0  0  0  0  0  0  0
   -0.7727   -1.5073    0.7418 H   0  0  0  0  0  0  0  0  0  0  0  0
   -1.6986    1.5863    1.3972 H   0  0  0  0  0  0  0  0  0  0  0  0
   -3.4084    1.1437    1.4537 H   0  0  0  0  0  0  0  0  0  0  0  0
   -2.2043    0.1077    2.2203 H   0  0  0  0  0  0  0  0  0  0  0  0
   -3.2420   -1.8403    0.8324 H   0  0  0  0  0  0  0  0  0  0  0  0
   -4.3429   -0.7061    0.0495 H   0  0  0  0  0  0  0  0  0  0  0  0
   -3.2778   -1.7335   -0.9292 H   0  0  0  0  0  0  0  0  0  0  0  0
    0.3473    0.9340   -0.7203 H   0  0  0  0  0  0  0  0  0  0  0  0
    0.3748    0.6635    1.0435 H   0  0  0  0  0  0  0  0  0  0  0  0
   -1.6303    2.0128   -0.9943 H   0  0  0  0  0  0  0  0  0  0  0  0
    3.8337   -1.3174   -1.1358 H   0  0  0  0  0  0  0  0  0  0  0  0
    3.8704   -1.5811    0.6419 H   0  0  0  0  0  0  0  0  0  0  0  0
    4.8147   -0.2687   -0.0917 H   0  0  0  0  0  0  0  0  0  0  0  0
  1  4  1  0  0  0  0
  1 21  1  0  0  0  0
  2  8  1  0  0  0  0
  2  9  1  0  0  0  0
  3  9  2  0  0  0  0
  4  5  1  0  0  0  0
  4  6  1  0  0  0  0
  4  7  1  0  0  0  0
  5  8  1  0  0  0  0
  5 11  1  0  0  0  0
  5 12  1  0  0  0  0
  6 13  1  0  0  0  0
  6 14  1  0  0  0  0
  6 15  1  0  0  0  0
  7 16  1  0  0  0  0
  7 17  1  0  0  0  0
  7 18  1  0  0  0  0
  8 19  1  0  0  0  0
  8 20  1  0  0  0  0
  9 10  1  0  0  0  0
 10 22  1  0  0  0  0
 10 23  1  0  0  0  0
 10 24  1  0  0  0  0
M  END
> <PUBCHEM_COMPOUND_CID>
6420388

> <PUBCHEM_CONFORMER_RMSD>
0.6

> <PUBCHEM_CONFORMER_DIVERSEORDER>
1
29
27
28
3
19
15
26
11
2
20
25
4
23
16
6
17
18
12
5
7
14
24
10
8
21
13
9
22

> <PUBCHEM_MMFF94_PARTIAL_CHARGES>
8
1 -0.41
10 0.06
2 -0.43
21 0.18
3 -0.57
4 0.23
8 0.28
9 0.66

> <PUBCHEM_EFFECTIVE_ROTOR_COUNT>
4

> <PUBCHEM_PHARMACOPHORE_FEATURES>
2
1 3 acceptor
3 4 6 7 hydrophobe

> <PUBCHEM_HEAVY_ATOM_COUNT>
10

> <PUBCHEM_ATOM_DEF_STEREO_COUNT>
0

> <PUBCHEM_ATOM_UDEF_STEREO_COUNT>
0

> <PUBCHEM_BOND_DEF_STEREO_COUNT>
0

> <PUBCHEM_BOND_UDEF_STEREO_COUNT>
0

> <PUBCHEM_ISOTOPIC_ATOM_COUNT>
0

> <PUBCHEM_COMPONENT_COUNT>
1

> <PUBCHEM_CACTVS_TAUTO_COUNT>
1

> <PUBCHEM_CONFORMER_ID>
0061F7A400000001

> <PUBCHEM_MMFF94_ENERGY>
18.2683

> <PUBCHEM_FEATURE_SELFOVERLAP>
10.148

> <PUBCHEM_SHAPE_FINGERPRINT>
12162725 195 18060423516644325656
12932764 1 18113900442193799714
13024252 1 15719393928324584927
14144814 61 18272934899468297658
14325111 11 18342177782172239514
14390081 3 17968087612428002453
15310529 11 16917075438495604895
18186145 218 18412266116767688410
190213 19 18131349704717001634
1986462 14 18261111846339265726
2306618 200 18337950091439474297
23402539 116 17418085503999064117
3248919 1 17917991655090254470

> <PUBCHEM_SHAPE_MULTIPOLES>
197.91
6.83
1.23
1.02
4.85
0.15
0.14
-0.55
-0.37
-0.43
-0.19
-0.88
0.3
0.41

> <PUBCHEM_SHAPE_SELFOVERLAP>
356.023

> <PUBCHEM_SHAPE_VOLUME>
130

> <PUBCHEM_COORDINATE_TYPE>
2
5
10

$$$$
