6421281
  -OEChem-11232108463D

 34 33  0     0  0  0  0  0  0999 V2000
   -1.3950   -3.6624   -0.0380 O   0  0  0  0  0  0  0  0  0  0  0  0
   -1.2145    1.5545   -0.4339 C   0  0  0  0  0  0  0  0  0  0  0  0
   -2.4966    1.2372    0.3425 C   0  0  0  0  0  0  0  0  0  0  0  0
   -0.1120    2.1647    0.4342 C   0  0  0  0  0  0  0  0  0  0  0  0
   -3.6562    0.6801   -0.4876 C   0  0  0  0  0  0  0  0  0  0  0  0
    1.0836    2.5311   -0.3970 C   0  0  0  0  0  0  0  0  0  0  0  0
   -4.9250    0.4452    0.3172 C   0  0  0  0  0  0  0  0  0  0  0  0
    2.3355    2.0617   -0.2789 C   0  0  0  0  0  0  0  0  0  0  0  0
    2.8467    1.0522    0.7079 C   0  0  0  0  0  0  0  0  0  0  0  0
    3.4432   -0.1392    0.0146 C   0  0  0  0  0  0  0  0  0  0  0  0
    2.7591   -1.2600   -0.2605 C   0  0  0  0  0  0  0  0  0  0  0  0
    1.3663   -1.4408    0.0834 C   0  0  0  0  0  0  0  0  0  0  0  0
    0.6928   -2.5635   -0.1957 C   0  0  0  0  0  0  0  0  0  0  0  0
   -0.7279   -2.6608    0.1919 C   0  0  0  0  0  0  0  0  0  0  0  0
   -0.8484    0.6358   -0.9084 H   0  0  0  0  0  0  0  0  0  0  0  0
   -1.4634    2.2470   -1.2487 H   0  0  0  0  0  0  0  0  0  0  0  0
   -2.8362    2.1543    0.8410 H   0  0  0  0  0  0  0  0  0  0  0  0
   -2.2586    0.5234    1.1412 H   0  0  0  0  0  0  0  0  0  0  0  0
   -0.4880    3.0817    0.9045 H   0  0  0  0  0  0  0  0  0  0  0  0
    0.1340    1.4829    1.2516 H   0  0  0  0  0  0  0  0  0  0  0  0
   -3.8810    1.3752   -1.3052 H   0  0  0  0  0  0  0  0  0  0  0  0
   -3.3461   -0.2643   -0.9501 H   0  0  0  0  0  0  0  0  0  0  0  0
    0.9056    3.2759   -1.1713 H   0  0  0  0  0  0  0  0  0  0  0  0
   -5.7154    0.0464   -0.3261 H   0  0  0  0  0  0  0  0  0  0  0  0
   -4.7469   -0.2725    1.1242 H   0  0  0  0  0  0  0  0  0  0  0  0
   -5.2843    1.3789    0.7609 H   0  0  0  0  0  0  0  0  0  0  0  0
    3.0779    2.4646   -0.9672 H   0  0  0  0  0  0  0  0  0  0  0  0
    3.6523    1.5313    1.2805 H   0  0  0  0  0  0  0  0  0  0  0  0
    2.1147    0.7742    1.4688 H   0  0  0  0  0  0  0  0  0  0  0  0
    4.4847   -0.0739   -0.2904 H   0  0  0  0  0  0  0  0  0  0  0  0
    3.2678   -2.0729   -0.7715 H   0  0  0  0  0  0  0  0  0  0  0  0
    0.8407   -0.6425    0.5904 H   0  0  0  0  0  0  0  0  0  0  0  0
    1.1415   -3.4123   -0.6988 H   0  0  0  0  0  0  0  0  0  0  0  0
   -1.1581   -1.7834    0.7020 H   0  0  0  0  0  0  0  0  0  0  0  0
  1 14  2  0  0  0  0
  2  3  1  0  0  0  0
  2  4  1  0  0  0  0
  2 15  1  0  0  0  0
  2 16  1  0  0  0  0
  3  5  1  0  0  0  0
  3 17  1  0  0  0  0
  3 18  1  0  0  0  0
  4  6  1  0  0  0  0
  4 19  1  0  0  0  0
  4 20  1  0  0  0  0
  5  7  1  0  0  0  0
  5 21  1  0  0  0  0
  5 22  1  0  0  0  0
  6  8  2  0  0  0  0
  6 23  1  0  0  0  0
  7 24  1  0  0  0  0
  7 25  1  0  0  0  0
  7 26  1  0  0  0  0
  8  9  1  0  0  0  0
  8 27  1  0  0  0  0
  9 10  1  0  0  0  0
  9 28  1  0  0  0  0
  9 29  1  0  0  0  0
 10 11  2  0  0  0  0
 10 30  1  0  0  0  0
 11 12  1  0  0  0  0
 11 31  1  0  0  0  0
 12 13  2  0  0  0  0
 12 32  1  0  0  0  0
 13 14  1  0  0  0  0
 13 33  1  0  0  0  0
 14 34  1  0  0  0  0
M  END
> <PUBCHEM_COMPOUND_CID>
6421281

> <PUBCHEM_CONFORMER_RMSD>
1

> <PUBCHEM_CONFORMER_DIVERSEORDER>
1
328
580
30
304
75
56
92
19
84
160
38
168
274
43
280
503
199
9
194
78
76
23
58
224
250
482
191
135
4
371
525
342
197
455
429
12
6
188
20
237
187
583
7
453
74
312
327
446
140
439
131
535
534
145
277
343
332
93
360
2
527
80
46
183
165
314
558
417
44
211
68
339
553
79
39
106
407
51
325
15
491
31
5
114
502
365
313
549
155
348
394
151
100

> <PUBCHEM_MMFF94_PARTIAL_CHARGES>
17
1 -0.57
10 -0.29
11 -0.15
12 -0.15
13 -0.14
14 0.5
23 0.15
27 0.15
30 0.15
31 0.15
32 0.15
33 0.15
34 0.06
4 0.14
6 -0.29
8 -0.29
9 0.28

> <PUBCHEM_EFFECTIVE_ROTOR_COUNT>
8

> <PUBCHEM_PHARMACOPHORE_FEATURES>
3
1 1 acceptor
1 7 hydrophobe
5 2 3 4 5 6 hydrophobe

> <PUBCHEM_HEAVY_ATOM_COUNT>
14

> <PUBCHEM_ATOM_DEF_STEREO_COUNT>
0

> <PUBCHEM_ATOM_UDEF_STEREO_COUNT>
0

> <PUBCHEM_BOND_DEF_STEREO_COUNT>
3

> <PUBCHEM_BOND_UDEF_STEREO_COUNT>
0

> <PUBCHEM_ISOTOPIC_ATOM_COUNT>
0

> <PUBCHEM_COMPONENT_COUNT>
1

> <PUBCHEM_CACTVS_TAUTO_COUNT>
1

> <PUBCHEM_CONFORMER_ID>
0061FB2100000001

> <PUBCHEM_MMFF94_ENERGY>
7.0629

> <PUBCHEM_FEATURE_SELFOVERLAP>
15.223

> <PUBCHEM_SHAPE_FINGERPRINT>
104564 63 17760934339082399532
12596599 1 17415010040789558415
14251705 54 18121218671387162693
14251717 144 18410854335221523493
20645477 70 18333165077160341317
21249577 43 18409169917719854531
33824 294 18409727335502392305
6443956 14 18265899047158438805
8199 65 18338234860444798956

> <PUBCHEM_SHAPE_MULTIPOLES>
282.24
6.72
4.1
0.74
7
3.13
0.02
-1.51
0.33
-0.44
-0.15
0
-0.15
0.11

> <PUBCHEM_SHAPE_SELFOVERLAP>
524.375

> <PUBCHEM_SHAPE_VOLUME>
176.1

> <PUBCHEM_COORDINATE_TYPE>
2
5
10

$$$$
