6422476
  -OEChem-11232108503D

 26 27  0     0  0  0  0  0  0999 V2000
   -3.4880   -0.0760    0.4013 O   0  0  0  0  0  0  0  0  0  0  0  0
    2.8920   -0.1904    0.4310 C   0  0  0  0  0  0  0  0  0  0  0  0
    4.2691    0.2749    0.1528 C   0  0  0  0  0  0  0  0  0  0  0  0
    3.2217    1.2390    0.6273 C   0  0  0  0  0  0  0  0  0  0  0  0
    2.0118   -0.5608   -0.7600 C   0  0  0  0  0  0  0  0  0  0  0  0
    0.5583   -0.4324   -0.4529 C   0  0  0  0  0  0  0  0  0  0  0  0
   -0.1440   -1.5209    0.0642 C   0  0  0  0  0  0  0  0  0  0  0  0
   -0.0992    0.7761   -0.6829 C   0  0  0  0  0  0  0  0  0  0  0  0
   -1.5037   -1.4010    0.3512 C   0  0  0  0  0  0  0  0  0  0  0  0
   -1.4589    0.8962   -0.3959 C   0  0  0  0  0  0  0  0  0  0  0  0
   -2.1613   -0.1924    0.1213 C   0  0  0  0  0  0  0  0  0  0  0  0
   -4.0979    1.1877    0.1425 C   0  0  0  0  0  0  0  0  0  0  0  0
    2.7332   -0.8159    1.2997 H   0  0  0  0  0  0  0  0  0  0  0  0
    4.6009    0.3569   -0.8749 H   0  0  0  0  0  0  0  0  0  0  0  0
    5.0495   -0.0030    0.8507 H   0  0  0  0  0  0  0  0  0  0  0  0
    3.2984    1.6059    1.6436 H   0  0  0  0  0  0  0  0  0  0  0  0
    2.8620    1.9728   -0.0830 H   0  0  0  0  0  0  0  0  0  0  0  0
    2.2425   -1.5937   -1.0507 H   0  0  0  0  0  0  0  0  0  0  0  0
    2.2603    0.0510   -1.6377 H   0  0  0  0  0  0  0  0  0  0  0  0
    0.3568   -2.4675    0.2498 H   0  0  0  0  0  0  0  0  0  0  0  0
    0.4364    1.6312   -1.0868 H   0  0  0  0  0  0  0  0  0  0  0  0
   -2.0454   -2.2523    0.7543 H   0  0  0  0  0  0  0  0  0  0  0  0
   -1.9071    1.8629   -0.5988 H   0  0  0  0  0  0  0  0  0  0  0  0
   -4.0699    1.4371   -0.9237 H   0  0  0  0  0  0  0  0  0  0  0  0
   -3.6655    1.9782    0.7652 H   0  0  0  0  0  0  0  0  0  0  0  0
   -5.1528    1.1009    0.4229 H   0  0  0  0  0  0  0  0  0  0  0  0
  1 11  1  0  0  0  0
  1 12  1  0  0  0  0
  2  3  1  0  0  0  0
  2  4  1  0  0  0  0
  2  5  1  0  0  0  0
  2 13  1  0  0  0  0
  3  4  1  0  0  0  0
  3 14  1  0  0  0  0
  3 15  1  0  0  0  0
  4 16  1  0  0  0  0
  4 17  1  0  0  0  0
  5  6  1  0  0  0  0
  5 18  1  0  0  0  0
  5 19  1  0  0  0  0
  6  7  2  0  0  0  0
  6  8  1  0  0  0  0
  7  9  1  0  0  0  0
  7 20  1  0  0  0  0
  8 10  2  0  0  0  0
  8 21  1  0  0  0  0
  9 11  2  0  0  0  0
  9 22  1  0  0  0  0
 10 11  1  0  0  0  0
 10 23  1  0  0  0  0
 12 24  1  0  0  0  0
 12 25  1  0  0  0  0
 12 26  1  0  0  0  0
M  END
> <PUBCHEM_COMPOUND_CID>
6422476

> <PUBCHEM_CONFORMER_RMSD>
0.6

> <PUBCHEM_CONFORMER_DIVERSEORDER>
1
3
4
2

> <PUBCHEM_MMFF94_PARTIAL_CHARGES>
21
1 -0.36
10 -0.15
11 0.08
12 0.28
13 0.1
14 0.1
15 0.1
16 0.1
17 0.1
2 -0.19
20 0.15
21 0.15
22 0.15
23 0.15
3 -0.2
4 -0.2
5 0.24
6 -0.14
7 -0.15
8 -0.15
9 -0.15

> <PUBCHEM_EFFECTIVE_ROTOR_COUNT>
3.6

> <PUBCHEM_PHARMACOPHORE_FEATURES>
2
1 1 acceptor
6 6 7 8 9 10 11 rings

> <PUBCHEM_HEAVY_ATOM_COUNT>
12

> <PUBCHEM_ATOM_DEF_STEREO_COUNT>
0

> <PUBCHEM_ATOM_UDEF_STEREO_COUNT>
0

> <PUBCHEM_BOND_DEF_STEREO_COUNT>
0

> <PUBCHEM_BOND_UDEF_STEREO_COUNT>
0

> <PUBCHEM_ISOTOPIC_ATOM_COUNT>
0

> <PUBCHEM_COMPONENT_COUNT>
1

> <PUBCHEM_CACTVS_TAUTO_COUNT>
1

> <PUBCHEM_CONFORMER_ID>
0061FFCC00000001

> <PUBCHEM_MMFF94_ENERGY>
39.7437

> <PUBCHEM_FEATURE_SELFOVERLAP>
10.148

> <PUBCHEM_SHAPE_FINGERPRINT>
10130415 120 16950288420326573605
11031198 65 17132119043700404590
11062470 55 18343021086115835741
11132069 177 18409166618878996541
11401426 45 18333445444219430599
11543360 7 16415186884861077085
11769659 78 13262691373511961457
12119455 92 17846493712476113558
122479 349 18341612650359555648
12251169 10 18259983799244122036
12932764 1 17168130274408616428
13214271 11 18343017834693750095
14325111 11 18411981355782339118
15219456 202 18272657822511919334
15775835 57 18334011692338593602
16945 1 17894917325565780439
17846911 113 18411415098693608913
18175812 5 18342459274566157454
18186145 218 17988373567595339519
19026448 5 16486976137974386023
20281407 28 10737285736159175452
20528008 55 18411978074400905708
20645464 45 18342460352244375910
20871998 184 18269561713400267015
21119208 17 14405186170692589000
21293036 1 11815893457278471642
21501502 16 18119812662192602340
22485316 2 11602819116217157416
23402539 116 18342727516411045045
23500284 214 18413395327936034985
23559900 14 18411427181133088086
2748010 2 17826235086417731103
369184 2 18334286591651879958
42 15 17821726105228013002
53812653 166 18410854343589743209
6333449 129 18341326785873774407
69090 78 18343860026446889335
7364860 26 18195808466590421582
83771 10 11241972581135472267

> <PUBCHEM_SHAPE_MULTIPOLES>
241.09
7.08
1.4
0.8
0.84
0.15
0.05
-2.64
-1.42
-0.4
-0.09
0.18
-0.03
0.34

> <PUBCHEM_SHAPE_SELFOVERLAP>
498.895

> <PUBCHEM_SHAPE_VOLUME>
139.9

> <PUBCHEM_COORDINATE_TYPE>
2
5
10

$$$$
