642534
  -OEChem-11232108553D

 22 22  0     0  0  0  0  0  0999 V2000
   -0.1754    2.2085    0.3067 O   0  0  0  0  0  0  0  0  0  0  0  0
    2.3330   -0.1985   -0.4138 C   0  0  0  0  0  0  0  0  0  0  0  0
    1.1033   -0.9426    0.0210 C   0  0  0  0  0  0  0  0  0  0  0  0
    1.9476    1.2721   -0.3491 C   0  0  0  0  0  0  0  0  0  0  0  0
    0.0596   -0.1618    0.3298 C   0  0  0  0  0  0  0  0  0  0  0  0
    0.5241    1.2238    0.1188 C   0  0  0  0  0  0  0  0  0  0  0  0
   -1.3127   -0.4717    0.7936 C   0  0  0  0  0  0  0  0  0  0  0  0
    1.1609   -2.4329    0.0653 C   0  0  0  0  0  0  0  0  0  0  0  0
   -2.2810   -0.6336   -0.3438 C   0  0  0  0  0  0  0  0  0  0  0  0
   -3.3593    0.1367   -0.5286 C   0  0  0  0  0  0  0  0  0  0  0  0
    3.1765   -0.4085    0.2527 H   0  0  0  0  0  0  0  0  0  0  0  0
    2.6235   -0.4792   -1.4319 H   0  0  0  0  0  0  0  0  0  0  0  0
    2.0041    1.7462   -1.3330 H   0  0  0  0  0  0  0  0  0  0  0  0
    2.5623    1.8175    0.3724 H   0  0  0  0  0  0  0  0  0  0  0  0
   -1.3106   -1.4026    1.3735 H   0  0  0  0  0  0  0  0  0  0  0  0
   -1.6536    0.3023    1.4924 H   0  0  0  0  0  0  0  0  0  0  0  0
    0.2088   -2.8771    0.3693 H   0  0  0  0  0  0  0  0  0  0  0  0
    1.9260   -2.7618    0.7755 H   0  0  0  0  0  0  0  0  0  0  0  0
    1.4114   -2.8314   -0.9231 H   0  0  0  0  0  0  0  0  0  0  0  0
   -2.0951   -1.4407   -1.0485 H   0  0  0  0  0  0  0  0  0  0  0  0
   -4.0231   -0.0395   -1.3679 H   0  0  0  0  0  0  0  0  0  0  0  0
   -3.5967    0.9509    0.1471 H   0  0  0  0  0  0  0  0  0  0  0  0
  1  6  2  0  0  0  0
  2  3  1  0  0  0  0
  2  4  1  0  0  0  0
  2 11  1  0  0  0  0
  2 12  1  0  0  0  0
  3  5  2  0  0  0  0
  3  8  1  0  0  0  0
  4  6  1  0  0  0  0
  4 13  1  0  0  0  0
  4 14  1  0  0  0  0
  5  6  1  0  0  0  0
  5  7  1  0  0  0  0
  7  9  1  0  0  0  0
  7 15  1  0  0  0  0
  7 16  1  0  0  0  0
  8 17  1  0  0  0  0
  8 18  1  0  0  0  0
  8 19  1  0  0  0  0
  9 10  2  0  0  0  0
  9 20  1  0  0  0  0
 10 21  1  0  0  0  0
 10 22  1  0  0  0  0
M  END
> <PUBCHEM_COMPOUND_CID>
642534

> <PUBCHEM_CONFORMER_RMSD>
0.6

> <PUBCHEM_CONFORMER_DIVERSEORDER>
1
4
3
2

> <PUBCHEM_MMFF94_PARTIAL_CHARGES>
13
1 -0.57
10 -0.3
2 0.14
20 0.15
21 0.15
22 0.15
3 -0.28
4 0.06
5 -0.12
6 0.49
7 0.28
8 0.14
9 -0.29

> <PUBCHEM_EFFECTIVE_ROTOR_COUNT>
2.4

> <PUBCHEM_PHARMACOPHORE_FEATURES>
3
1 1 acceptor
1 10 hydrophobe
5 2 3 4 5 6 rings

> <PUBCHEM_HEAVY_ATOM_COUNT>
10

> <PUBCHEM_ATOM_DEF_STEREO_COUNT>
0

> <PUBCHEM_ATOM_UDEF_STEREO_COUNT>
0

> <PUBCHEM_BOND_DEF_STEREO_COUNT>
0

> <PUBCHEM_BOND_UDEF_STEREO_COUNT>
0

> <PUBCHEM_ISOTOPIC_ATOM_COUNT>
0

> <PUBCHEM_COMPONENT_COUNT>
1

> <PUBCHEM_CACTVS_TAUTO_COUNT>
10

> <PUBCHEM_CONFORMER_ID>
0009CDE600000001

> <PUBCHEM_MMFF94_ENERGY>
3.9982

> <PUBCHEM_FEATURE_SELFOVERLAP>
15.223

> <PUBCHEM_SHAPE_FINGERPRINT>
1 1 18336543936009894646
11031198 65 18261682553346378503
11206711 2 18264505991790140132
12423570 1 14006711319672257794
12897270 3 18410014355387162823
16945 1 18337121089583499178
18185500 45 18343305859527456283
193761 8 18050289159252515968
20201158 50 18334292046175988855
20871998 184 17042895581787512114
21040471 1 17977668937309847928
23402655 69 18411691089783086013
23552423 10 18191876634193641582
241688 4 17686900518890680034
2748010 2 18122360222302661370
29004967 10 18410018748959404107
5084963 1 17841159062436279571
528886 8 18411416258313549946

> <PUBCHEM_SHAPE_MULTIPOLES>
199.93
3.73
2.06
0.76
3.02
0.22
0.02
0.06
-0.99
-1.03
0.12
0.14
0.01
-0.04

> <PUBCHEM_SHAPE_SELFOVERLAP>
401.896

> <PUBCHEM_SHAPE_VOLUME>
120.2

> <PUBCHEM_COORDINATE_TYPE>
2
5
10

$$$$
