642793
  -OEChem-11232109423D

 28 28  0     1  0  0  0  0  0999 V2000
   -1.0783    0.6324   -0.1997 O   0  0  0  0  0  0  0  0  0  0  0  0
   -2.6253    2.2897   -0.1548 O   0  0  0  0  0  0  0  0  0  0  0  0
    0.6551   -1.0255   -0.2265 C   0  0  0  0  0  0  0  0  0  0  0  0
   -0.7440   -0.6917    0.2711 C   0  0  2  0  0  0  0  0  0  0  0  0
    1.6885   -0.0285    0.2974 C   0  0  0  0  0  0  0  0  0  0  0  0
    3.0976   -0.3870   -0.1773 C   0  0  0  0  0  0  0  0  0  0  0  0
   -1.7674   -1.7069   -0.2199 C   0  0  0  0  0  0  0  0  0  0  0  0
    4.1266    0.6287    0.3186 C   0  0  0  0  0  0  0  0  0  0  0  0
   -3.1350   -1.2058    0.0980 C   0  0  0  0  0  0  0  0  0  0  0  0
    5.5238    0.2943   -0.1789 C   0  0  0  0  0  0  0  0  0  0  0  0
   -2.3460    1.1009   -0.0461 C   0  0  0  0  0  0  0  0  0  0  0  0
   -3.3957    0.0994    0.2181 C   0  0  0  0  0  0  0  0  0  0  0  0
    0.6735   -1.0031   -1.3235 H   0  0  0  0  0  0  0  0  0  0  0  0
    0.9284   -2.0401    0.0873 H   0  0  0  0  0  0  0  0  0  0  0  0
   -0.7381   -0.6581    1.3691 H   0  0  0  0  0  0  0  0  0  0  0  0
    1.4424    0.9843   -0.0434 H   0  0  0  0  0  0  0  0  0  0  0  0
    1.6656   -0.0148    1.3939 H   0  0  0  0  0  0  0  0  0  0  0  0
    3.3648   -1.3879    0.1829 H   0  0  0  0  0  0  0  0  0  0  0  0
    3.1171   -0.4221   -1.2734 H   0  0  0  0  0  0  0  0  0  0  0  0
   -1.5974   -2.6723    0.2691 H   0  0  0  0  0  0  0  0  0  0  0  0
   -1.6960   -1.8609   -1.3031 H   0  0  0  0  0  0  0  0  0  0  0  0
    3.8551    1.6334   -0.0258 H   0  0  0  0  0  0  0  0  0  0  0  0
    4.1294    0.6510    1.4146 H   0  0  0  0  0  0  0  0  0  0  0  0
   -3.9334   -1.9290    0.2303 H   0  0  0  0  0  0  0  0  0  0  0  0
    5.8397   -0.6929    0.1731 H   0  0  0  0  0  0  0  0  0  0  0  0
    6.2437    1.0324    0.1884 H   0  0  0  0  0  0  0  0  0  0  0  0
    5.5622    0.2978   -1.2729 H   0  0  0  0  0  0  0  0  0  0  0  0
   -4.3957    0.4544    0.4380 H   0  0  0  0  0  0  0  0  0  0  0  0
  1  4  1  0  0  0  0
  1 11  1  0  0  0  0
  2 11  2  0  0  0  0
  3  4  1  0  0  0  0
  3  5  1  0  0  0  0
  3 13  1  0  0  0  0
  3 14  1  0  0  0  0
  4  7  1  0  0  0  0
  4 15  1  0  0  0  0
  5  6  1  0  0  0  0
  5 16  1  0  0  0  0
  5 17  1  0  0  0  0
  6  8  1  0  0  0  0
  6 18  1  0  0  0  0
  6 19  1  0  0  0  0
  7  9  1  0  0  0  0
  7 20  1  0  0  0  0
  7 21  1  0  0  0  0
  8 10  1  0  0  0  0
  8 22  1  0  0  0  0
  8 23  1  0  0  0  0
  9 12  2  0  0  0  0
  9 24  1  0  0  0  0
 10 25  1  0  0  0  0
 10 26  1  0  0  0  0
 10 27  1  0  0  0  0
 11 12  1  0  0  0  0
 12 28  1  0  0  0  0
M  END
> <PUBCHEM_COMPOUND_CID>
642793

> <PUBCHEM_CONFORMER_RMSD>
0.6

> <PUBCHEM_CONFORMER_DIVERSEORDER>
1
34
23
38
13
28
35
3
30
33
12
32
8
15
37
4
36
21
5
29
14
31
20
10
19
22
2
26
11
24
16
17
25
6
27
9
18
7

> <PUBCHEM_MMFF94_PARTIAL_CHARGES>
9
1 -0.43
11 0.71
12 -0.14
2 -0.57
24 0.15
28 0.15
4 0.28
7 0.14
9 -0.29

> <PUBCHEM_EFFECTIVE_ROTOR_COUNT>
4.6

> <PUBCHEM_PHARMACOPHORE_FEATURES>
4
1 10 hydrophobe
1 2 acceptor
4 3 5 6 8 hydrophobe
6 1 4 7 9 11 12 rings

> <PUBCHEM_HEAVY_ATOM_COUNT>
12

> <PUBCHEM_ATOM_DEF_STEREO_COUNT>
1

> <PUBCHEM_ATOM_UDEF_STEREO_COUNT>
0

> <PUBCHEM_BOND_DEF_STEREO_COUNT>
0

> <PUBCHEM_BOND_UDEF_STEREO_COUNT>
0

> <PUBCHEM_ISOTOPIC_ATOM_COUNT>
0

> <PUBCHEM_COMPONENT_COUNT>
1

> <PUBCHEM_CACTVS_TAUTO_COUNT>
1

> <PUBCHEM_CONFORMER_ID>
0009CEE900000001

> <PUBCHEM_MMFF94_ENERGY>
12.8945

> <PUBCHEM_FEATURE_SELFOVERLAP>
20.297

> <PUBCHEM_SHAPE_FINGERPRINT>
10608611 8 18341611482228664844
10680689 15 18411706516952269402
12346645 44 18261108556631856186
12932764 1 17560506374510590242
13024252 1 17676486164254867835
13081056 2 18272088335871318568
13897977 58 18334580169798886588
14325111 11 18410855426016525178
15219456 202 18202008676978094942
15501527 16 18341898471838200616
17802600 8 18411978104671664968
17834072 32 18264769865706658437
18186145 218 17988935448560969962
1986462 14 18341897402723373822
20300324 65 18411980303499598790
20510252 161 18342741784582507297
20645477 56 18412548686602421833
20645477 70 17060350574393056838
2306618 200 18202008732812286827
23380061 127 18408881858537257918
23402539 116 18339072791695934383
23557571 272 18272662250681048364
23559900 14 18200876146343419038
4175511 318 17775283889142585998
4214541 1 18411138013743017976
573450 72 18261097566084664234
6333449 129 18413386531964383743
77779 3 18410013234933604266

> <PUBCHEM_SHAPE_MULTIPOLES>
235.22
9.06
1.62
0.65
12.84
0.47
0.01
1.66
0.01
-1.85
-0.13
0.06
-0.02
0.16

> <PUBCHEM_SHAPE_SELFOVERLAP>
457.901

> <PUBCHEM_SHAPE_VOLUME>
141.8

> <PUBCHEM_COORDINATE_TYPE>
2
5
10

$$$$
