6427789
  -OEChem-11232109423D

 21 20  0     0  0  0  0  0  0999 V2000
    3.5520    0.2921    0.2350 O   0  0  0  0  0  0  0  0  0  0  0  0
   -2.8095   -0.4920   -0.5434 C   0  0  0  0  0  0  0  0  0  0  0  0
   -2.4060    0.9009   -0.1566 C   0  0  0  0  0  0  0  0  0  0  0  0
   -3.0841   -1.3506    0.6814 C   0  0  0  0  0  0  0  0  0  0  0  0
   -1.1347    1.2743    0.0537 C   0  0  0  0  0  0  0  0  0  0  0  0
   -0.0125    0.3695   -0.0706 C   0  0  0  0  0  0  0  0  0  0  0  0
    1.2523    0.7564    0.1425 C   0  0  0  0  0  0  0  0  0  0  0  0
    2.4247   -0.1540    0.0201 C   0  0  0  0  0  0  0  0  0  0  0  0
    2.2177   -1.5966   -0.3623 C   0  0  0  0  0  0  0  0  0  0  0  0
   -2.0873   -0.9797   -1.2052 H   0  0  0  0  0  0  0  0  0  0  0  0
   -3.7304   -0.4193   -1.1358 H   0  0  0  0  0  0  0  0  0  0  0  0
   -3.1971    1.6348   -0.0276 H   0  0  0  0  0  0  0  0  0  0  0  0
   -3.4354   -2.3412    0.3751 H   0  0  0  0  0  0  0  0  0  0  0  0
   -2.1819   -1.4868    1.2868 H   0  0  0  0  0  0  0  0  0  0  0  0
   -3.8560   -0.9020    1.3161 H   0  0  0  0  0  0  0  0  0  0  0  0
   -0.9313    2.3036    0.3368 H   0  0  0  0  0  0  0  0  0  0  0  0
   -0.2093   -0.6624   -0.3328 H   0  0  0  0  0  0  0  0  0  0  0  0
    1.4847    1.7823    0.4156 H   0  0  0  0  0  0  0  0  0  0  0  0
    1.7572   -1.6634   -1.3513 H   0  0  0  0  0  0  0  0  0  0  0  0
    3.1884   -2.1005   -0.4047 H   0  0  0  0  0  0  0  0  0  0  0  0
    1.6049   -2.1024    0.3884 H   0  0  0  0  0  0  0  0  0  0  0  0
  1  8  2  0  0  0  0
  2  3  1  0  0  0  0
  2  4  1  0  0  0  0
  2 10  1  0  0  0  0
  2 11  1  0  0  0  0
  3  5  2  0  0  0  0
  3 12  1  0  0  0  0
  4 13  1  0  0  0  0
  4 14  1  0  0  0  0
  4 15  1  0  0  0  0
  5  6  1  0  0  0  0
  5 16  1  0  0  0  0
  6  7  2  0  0  0  0
  6 17  1  0  0  0  0
  7  8  1  0  0  0  0
  7 18  1  0  0  0  0
  8  9  1  0  0  0  0
  9 19  1  0  0  0  0
  9 20  1  0  0  0  0
  9 21  1  0  0  0  0
M  END
> <PUBCHEM_COMPOUND_CID>
6427789

> <PUBCHEM_CONFORMER_RMSD>
0.6

> <PUBCHEM_CONFORMER_DIVERSEORDER>
2
14
10
16
6
12
4
13
1
15
11
3
8
5
7
9

> <PUBCHEM_MMFF94_PARTIAL_CHARGES>
12
1 -0.57
12 0.15
16 0.15
17 0.15
18 0.15
2 0.14
3 -0.29
5 -0.15
6 -0.15
7 -0.14
8 0.49
9 0.06

> <PUBCHEM_EFFECTIVE_ROTOR_COUNT>
3

> <PUBCHEM_PHARMACOPHORE_FEATURES>
2
1 1 acceptor
1 4 hydrophobe

> <PUBCHEM_HEAVY_ATOM_COUNT>
9

> <PUBCHEM_ATOM_DEF_STEREO_COUNT>
0

> <PUBCHEM_ATOM_UDEF_STEREO_COUNT>
0

> <PUBCHEM_BOND_DEF_STEREO_COUNT>
2

> <PUBCHEM_BOND_UDEF_STEREO_COUNT>
0

> <PUBCHEM_ISOTOPIC_ATOM_COUNT>
0

> <PUBCHEM_COMPONENT_COUNT>
1

> <PUBCHEM_CACTVS_TAUTO_COUNT>
2

> <PUBCHEM_CONFORMER_ID>
0062148D00000002

> <PUBCHEM_MMFF94_ENERGY>
9.4829

> <PUBCHEM_FEATURE_SELFOVERLAP>
10.148

> <PUBCHEM_SHAPE_FINGERPRINT>
10857977 72 18342164583600725433
11987891 36 18411138043307005966
12932764 1 17203599385280266124
14325111 11 18412261701351507948
20201158 50 18409447003103072355
20279233 1 18411133619537865055
20281407 28 18343303686526926275
20645477 70 18059286544222279615
23552423 10 18261115140557887693
305870 269 11959465473926109013
3248919 1 18409722933145044132
528716 315 18333740117013554231

> <PUBCHEM_SHAPE_MULTIPOLES>
179.35
5.86
1.51
0.72
0.87
0.38
0
1.65
-0.26
-0.36
-0.04
-0.23
0.11
0.44

> <PUBCHEM_SHAPE_SELFOVERLAP>
332.572

> <PUBCHEM_SHAPE_VOLUME>
113.1

> <PUBCHEM_COORDINATE_TYPE>
2
5
10

$$$$
