6427068
  -OEChem-11232109043D

 28 28  0     1  0  0  0  0  0999 V2000
   -1.8403    2.1534   -0.6466 O   0  0  0  0  0  0  0  0  0  0  0  0
   -2.5901   -3.1051   -0.5173 O   0  0  0  0  0  0  0  0  0  0  0  0
   -0.5715    2.1964    0.0049 C   0  0  1  0  0  0  0  0  0  0  0  0
   -1.7431    1.5179    0.6345 C   0  0  2  0  0  0  0  0  0  0  0  0
    0.4731    1.3793   -0.6906 C   0  0  0  0  0  0  0  0  0  0  0  0
    1.5104    0.8312    0.2893 C   0  0  0  0  0  0  0  0  0  0  0  0
    2.5495   -0.0344   -0.4242 C   0  0  0  0  0  0  0  0  0  0  0  0
   -1.6994    0.0728    0.7901 C   0  0  0  0  0  0  0  0  0  0  0  0
    3.6048   -0.5544    0.5515 C   0  0  0  0  0  0  0  0  0  0  0  0
   -2.2363   -0.8133   -0.0586 C   0  0  0  0  0  0  0  0  0  0  0  0
    4.6585   -1.3882   -0.1601 C   0  0  0  0  0  0  0  0  0  0  0  0
   -2.1155   -2.2555    0.2270 C   0  0  0  0  0  0  0  0  0  0  0  0
   -0.2217    3.1384    0.4011 H   0  0  0  0  0  0  0  0  0  0  0  0
   -2.2233    2.0311    1.4606 H   0  0  0  0  0  0  0  0  0  0  0  0
    0.9772    2.0270   -1.4189 H   0  0  0  0  0  0  0  0  0  0  0  0
    0.0343    0.5615   -1.2746 H   0  0  0  0  0  0  0  0  0  0  0  0
    2.0101    1.6695    0.7912 H   0  0  0  0  0  0  0  0  0  0  0  0
    1.0323    0.2423    1.0784 H   0  0  0  0  0  0  0  0  0  0  0  0
    2.0512   -0.8810   -0.9121 H   0  0  0  0  0  0  0  0  0  0  0  0
    3.0364    0.5526   -1.2126 H   0  0  0  0  0  0  0  0  0  0  0  0
   -1.2008   -0.2892    1.6862 H   0  0  0  0  0  0  0  0  0  0  0  0
    4.0943    0.2875    1.0549 H   0  0  0  0  0  0  0  0  0  0  0  0
    3.1265   -1.1631    1.3276 H   0  0  0  0  0  0  0  0  0  0  0  0
   -2.7564   -0.5134   -0.9606 H   0  0  0  0  0  0  0  0  0  0  0  0
    4.2064   -2.2567   -0.6497 H   0  0  0  0  0  0  0  0  0  0  0  0
    5.4023   -1.7510    0.5563 H   0  0  0  0  0  0  0  0  0  0  0  0
    5.1792   -0.7972   -0.9203 H   0  0  0  0  0  0  0  0  0  0  0  0
   -1.5728   -2.5280    1.1474 H   0  0  0  0  0  0  0  0  0  0  0  0
  1  3  1  0  0  0  0
  1  4  1  0  0  0  0
  2 12  2  0  0  0  0
  3  4  1  0  0  0  0
  3  5  1  0  0  0  0
  3 13  1  0  0  0  0
  4  8  1  0  0  0  0
  4 14  1  0  0  0  0
  5  6  1  0  0  0  0
  5 15  1  0  0  0  0
  5 16  1  0  0  0  0
  6  7  1  0  0  0  0
  6 17  1  0  0  0  0
  6 18  1  0  0  0  0
  7  9  1  0  0  0  0
  7 19  1  0  0  0  0
  7 20  1  0  0  0  0
  8 10  2  0  0  0  0
  8 21  1  0  0  0  0
  9 11  1  0  0  0  0
  9 22  1  0  0  0  0
  9 23  1  0  0  0  0
 10 12  1  0  0  0  0
 10 24  1  0  0  0  0
 11 25  1  0  0  0  0
 11 26  1  0  0  0  0
 11 27  1  0  0  0  0
 12 28  1  0  0  0  0
M  END
> <PUBCHEM_COMPOUND_CID>
6427068

> <PUBCHEM_CONFORMER_RMSD>
0.8

> <PUBCHEM_CONFORMER_DIVERSEORDER>
1
21
16
4
13
24
22
7
20
9
2
23
15
5
14
18
19
10
12
8
17
11
3
6

> <PUBCHEM_MMFF94_PARTIAL_CHARGES>
13
1 -0.3
10 -0.14
12 0.5
13 0.1
14 0.1
2 -0.57
21 0.15
24 0.15
28 0.06
3 -0.05
4 0.09
5 0.09
8 -0.19

> <PUBCHEM_EFFECTIVE_ROTOR_COUNT>
6.6

> <PUBCHEM_PHARMACOPHORE_FEATURES>
4
1 1 acceptor
1 11 hydrophobe
1 2 acceptor
4 5 6 7 9 hydrophobe

> <PUBCHEM_HEAVY_ATOM_COUNT>
12

> <PUBCHEM_ATOM_DEF_STEREO_COUNT>
2

> <PUBCHEM_ATOM_UDEF_STEREO_COUNT>
0

> <PUBCHEM_BOND_DEF_STEREO_COUNT>
1

> <PUBCHEM_BOND_UDEF_STEREO_COUNT>
0

> <PUBCHEM_ISOTOPIC_ATOM_COUNT>
0

> <PUBCHEM_COMPONENT_COUNT>
1

> <PUBCHEM_CACTVS_TAUTO_COUNT>
1

> <PUBCHEM_CONFORMER_ID>
006211BC00000001

> <PUBCHEM_MMFF94_ENERGY>
7.9094

> <PUBCHEM_FEATURE_SELFOVERLAP>
20.297

> <PUBCHEM_SHAPE_FINGERPRINT>
12500047 106 18193551165134159048
12757275 245 18410296865857329486
14251705 54 17905329885254214642
14577589 140 18042975267839218680
20291156 8 18265900339705945114
20524608 308 18265049141628068736
20621476 51 18266441145346565402
20645477 70 17327445334697892759
20653085 51 8718286653131217508
20724930 33 18410856594200039982
20871998 184 18263654978169374033
20871998 22 18122905588570224305
23500284 5 18268440216150855307
257057 1 18195523911994851111
4175511 335 17252304709738345437
568465 68 17203610380718225874
58143232 49 18267021833250278398
58999712 31 18409167684490166106
6338986 31 18194679495623096147

> <PUBCHEM_SHAPE_MULTIPOLES>
235.22
6.42
3.04
0.83
9.11
1.46
-0.03
4.33
-0.16
-3.17
0.5
-0.07
-0.09
-0.22

> <PUBCHEM_SHAPE_SELFOVERLAP>
446.896

> <PUBCHEM_SHAPE_VOLUME>
145.4

> <PUBCHEM_COORDINATE_TYPE>
2
5
10

$$$$
