6427119
  -OEChem-11232108463D

 30 29  0     1  0  0  0  0  0999 V2000
    0.0917   -0.4235    0.0581 O   0  0  0  0  0  0  0  0  0  0  0  0
   -1.3137   -0.3928    1.8816 O   0  0  0  0  0  0  0  0  0  0  0  0
    2.5212   -0.5655    0.1021 C   0  0  1  0  0  0  0  0  0  0  0  0
    2.7782    0.7115   -0.7210 C   0  0  0  0  0  0  0  0  0  0  0  0
    1.2209   -0.5129    0.9155 C   0  0  0  0  0  0  0  0  0  0  0  0
    2.5131   -1.7781   -0.8358 C   0  0  0  0  0  0  0  0  0  0  0  0
    2.8785    1.9713    0.1270 C   0  0  0  0  0  0  0  0  0  0  0  0
   -1.1267   -0.3701    0.6735 C   0  0  0  0  0  0  0  0  0  0  0  0
   -2.2097   -0.2850   -0.3528 C   0  0  0  0  0  0  0  0  0  0  0  0
   -2.7718   -1.5627   -0.9021 C   0  0  0  0  0  0  0  0  0  0  0  0
   -2.5713    0.9572   -0.7234 C   0  0  0  0  0  0  0  0  0  0  0  0
   -2.0105    2.2505   -0.2227 C   0  0  0  0  0  0  0  0  0  0  0  0
    3.3522   -0.6908    0.8083 H   0  0  0  0  0  0  0  0  0  0  0  0
    3.7182    0.5948   -1.2748 H   0  0  0  0  0  0  0  0  0  0  0  0
    1.9883    0.8478   -1.4697 H   0  0  0  0  0  0  0  0  0  0  0  0
    1.2308    0.3359    1.6082 H   0  0  0  0  0  0  0  0  0  0  0  0
    1.1377   -1.4289    1.5141 H   0  0  0  0  0  0  0  0  0  0  0  0
    1.7309   -1.6966   -1.5979 H   0  0  0  0  0  0  0  0  0  0  0  0
    2.3456   -2.7030   -0.2737 H   0  0  0  0  0  0  0  0  0  0  0  0
    3.4747   -1.8732   -1.3517 H   0  0  0  0  0  0  0  0  0  0  0  0
    1.9154    2.2329    0.5748 H   0  0  0  0  0  0  0  0  0  0  0  0
    3.6154    1.8507    0.9272 H   0  0  0  0  0  0  0  0  0  0  0  0
    3.1900    2.8168   -0.4951 H   0  0  0  0  0  0  0  0  0  0  0  0
   -3.5373   -1.3740   -1.6615 H   0  0  0  0  0  0  0  0  0  0  0  0
   -1.9785   -2.1600   -1.3627 H   0  0  0  0  0  0  0  0  0  0  0  0
   -3.2285   -2.1505   -0.0996 H   0  0  0  0  0  0  0  0  0  0  0  0
   -3.3500    1.0569   -1.4774 H   0  0  0  0  0  0  0  0  0  0  0  0
   -1.5880    2.8142   -1.0606 H   0  0  0  0  0  0  0  0  0  0  0  0
   -1.2271    2.1380    0.5305 H   0  0  0  0  0  0  0  0  0  0  0  0
   -2.8129    2.8503    0.2183 H   0  0  0  0  0  0  0  0  0  0  0  0
  1  5  1  0  0  0  0
  1  8  1  0  0  0  0
  2  8  2  0  0  0  0
  3  4  1  0  0  0  0
  3  5  1  0  0  0  0
  3  6  1  0  0  0  0
  3 13  1  0  0  0  0
  4  7  1  0  0  0  0
  4 14  1  0  0  0  0
  4 15  1  0  0  0  0
  5 16  1  0  0  0  0
  5 17  1  0  0  0  0
  6 18  1  0  0  0  0
  6 19  1  0  0  0  0
  6 20  1  0  0  0  0
  7 21  1  0  0  0  0
  7 22  1  0  0  0  0
  7 23  1  0  0  0  0
  8  9  1  0  0  0  0
  9 10  1  0  0  0  0
  9 11  2  0  0  0  0
 10 24  1  0  0  0  0
 10 25  1  0  0  0  0
 10 26  1  0  0  0  0
 11 12  1  0  0  0  0
 11 27  1  0  0  0  0
 12 28  1  0  0  0  0
 12 29  1  0  0  0  0
 12 30  1  0  0  0  0
M  END
> <PUBCHEM_COMPOUND_CID>
6427119

> <PUBCHEM_CONFORMER_RMSD>
0.6

> <PUBCHEM_CONFORMER_DIVERSEORDER>
1
292
97
318
209
244
300
294
146
315
184
206
268
102
118
279
264
144
192
251
25
218
170
301
246
214
228
54
198
317
234
285
232
322
174
267
262
114
229
277
151
156
299
87
186
297
65
275
272
70
257
311
119
133
201
273
120
276
258
271
321
213
305
183
159
288
105
121
193
226
255
164
7
324
307
60
303
199
100
180
95
274
248
122
85
304
91
150
48
172
24
49
291
263
308
187
43
175
166
71
233
131
84
142
162
236
197
41
238
92
217
163
302
126
101
223
81
115
109
200
149
58
111
283
323
160
220
243
26
225
125
139
108
157
205
231
295
32
247
158
113
320
93
284
99
316
254
169
141
309
96
222
153
5
47
55
173
239
154
69
310
21
130
227
73
107
76
290
6
296
137
132
83
28
34
245
235
88
266
194
190
182
75
155
280
59
50
256
80
128
94
224
117
20
12
208
148
168
51
249
282
8
211
195
298
188
207
103
167
176
140
57
325
129
185
189
270
177
191
259
219
152
314
286
30
215
210
52
313
178
135
161
171
196
40
136
319
9
253
74
90
145
281
221
241
78
289
67
203
252
240
17
242
143
10
72
216
127
56
202
45
77
116
147
68
29
64
98
134
15
19
260
204
44
306
138
261
42
230
66
287
53
269
61
46
312
62
31
123
36
35
106
278
23
79
250
22
2
89
265
179
39
63
165
33
82
11
86
27
293
110
16
112
212
104
38
18
13
4
124
37
14
181
237
3

> <PUBCHEM_MMFF94_PARTIAL_CHARGES>
9
1 -0.43
10 0.14
11 -0.29
12 0.14
2 -0.57
27 0.15
5 0.28
8 0.71
9 -0.12

> <PUBCHEM_EFFECTIVE_ROTOR_COUNT>
5

> <PUBCHEM_PHARMACOPHORE_FEATURES>
5
1 10 hydrophobe
1 12 hydrophobe
1 2 acceptor
1 6 hydrophobe
1 7 hydrophobe

> <PUBCHEM_HEAVY_ATOM_COUNT>
12

> <PUBCHEM_ATOM_DEF_STEREO_COUNT>
0

> <PUBCHEM_ATOM_UDEF_STEREO_COUNT>
1

> <PUBCHEM_BOND_DEF_STEREO_COUNT>
1

> <PUBCHEM_BOND_UDEF_STEREO_COUNT>
0

> <PUBCHEM_ISOTOPIC_ATOM_COUNT>
0

> <PUBCHEM_COMPONENT_COUNT>
1

> <PUBCHEM_CACTVS_TAUTO_COUNT>
1

> <PUBCHEM_CONFORMER_ID>
006211EF00000001

> <PUBCHEM_MMFF94_ENERGY>
17.8985

> <PUBCHEM_FEATURE_SELFOVERLAP>
25.374

> <PUBCHEM_SHAPE_FINGERPRINT>
11715629 250 18410288125166489044
12162725 195 18260541238654217316
12897270 3 18341609364609347470
12932764 1 18341063959792600022
13764800 53 17313401023066553457
14390081 3 18040714774905893464
15276787 5 8069491229838281638
15310529 11 18272646874413279103
15375462 6 18341328989176036854
15775835 57 18271250511857599148
15852999 172 16298931165000955546
17041 50 18196938773328259030
18186145 218 17749101154473513559
18522851 268 18343297063428984462
18522853 303 18335420153495419053
19973954 147 18409167688442118644
20361792 2 14908173166370938225
20653085 51 18266181630294090961
20871999 31 18193535982720537831
21524375 3 17755017493604753517
21947302 44 18187361051992617656
22802520 49 18263374611288814488
230 275 17530682130349782836
23552423 10 18341609274410240127
23557571 272 18128793357235756513
3248919 1 17203332173969092822
59915604 170 17970051447796181093
74978 22 18268712718745725022
8030462 33 17821729416320847834
8050 44 18187918521325546692
81228 2 16372441244079881123
93112 12 18341048510668662062
9939556 21 18340200778534616638

> <PUBCHEM_SHAPE_MULTIPOLES>
235.22
5.49
2.09
1.17
1.15
0.81
0.39
0.52
-1.48
0.13
-0.5
-0.27
-0.25
0.14

> <PUBCHEM_SHAPE_SELFOVERLAP>
439.607

> <PUBCHEM_SHAPE_VOLUME>
147.9

> <PUBCHEM_COORDINATE_TYPE>
2
5
10

$$$$
