6427788
  -OEChem-11232109003D

 30 30  0     1  0  0  0  0  0999 V2000
    0.4498    0.8052    0.0408 O   0  0  0  0  0  0  0  0  0  0  0  0
   -2.9459   -0.6179   -0.4404 O   0  0  0  0  0  0  0  0  0  0  0  0
   -0.9827    0.7548    0.1157 C   0  0  0  0  0  0  0  0  0  0  0  0
   -1.5527   -0.4428   -0.6732 C   0  0  1  0  0  0  0  0  0  0  0  0
    1.2221   -0.3826    0.2429 C   0  0  2  0  0  0  0  0  0  0  0  0
   -0.8424   -1.7444   -0.3231 C   0  0  0  0  0  0  0  0  0  0  0  0
    0.6546   -1.5825   -0.5299 C   0  0  0  0  0  0  0  0  0  0  0  0
   -1.4439    2.0686   -0.5462 C   0  0  0  0  0  0  0  0  0  0  0  0
   -1.4631    0.7991    1.5746 C   0  0  0  0  0  0  0  0  0  0  0  0
    1.4004   -0.6847    1.7354 C   0  0  0  0  0  0  0  0  0  0  0  0
    2.5863   -0.0717   -0.3205 C   0  0  0  0  0  0  0  0  0  0  0  0
    2.9176    1.0988   -0.8761 C   0  0  0  0  0  0  0  0  0  0  0  0
   -1.4219   -0.2667   -1.7484 H   0  0  0  0  0  0  0  0  0  0  0  0
   -1.2231   -2.5553   -0.9564 H   0  0  0  0  0  0  0  0  0  0  0  0
   -1.0647   -2.0515    0.7052 H   0  0  0  0  0  0  0  0  0  0  0  0
    1.1720   -2.5092   -0.2516 H   0  0  0  0  0  0  0  0  0  0  0  0
    0.8226   -1.4439   -1.6075 H   0  0  0  0  0  0  0  0  0  0  0  0
   -1.0335    2.9373   -0.0176 H   0  0  0  0  0  0  0  0  0  0  0  0
   -1.0754    2.1345   -1.5767 H   0  0  0  0  0  0  0  0  0  0  0  0
   -2.5351    2.1571   -0.5639 H   0  0  0  0  0  0  0  0  0  0  0  0
   -0.8753    1.5186    2.1557 H   0  0  0  0  0  0  0  0  0  0  0  0
   -2.5185    1.0854    1.6441 H   0  0  0  0  0  0  0  0  0  0  0  0
   -1.3680   -0.1672    2.0738 H   0  0  0  0  0  0  0  0  0  0  0  0
    0.4993   -1.1073    2.1842 H   0  0  0  0  0  0  0  0  0  0  0  0
    2.2011   -1.4138    1.9086 H   0  0  0  0  0  0  0  0  0  0  0  0
    1.6383    0.2269    2.2961 H   0  0  0  0  0  0  0  0  0  0  0  0
    3.3438   -0.8512   -0.2730 H   0  0  0  0  0  0  0  0  0  0  0  0
   -3.0694   -0.9325    0.4708 H   0  0  0  0  0  0  0  0  0  0  0  0
    3.9231    1.2414   -1.2602 H   0  0  0  0  0  0  0  0  0  0  0  0
    2.2391    1.9375   -0.9741 H   0  0  0  0  0  0  0  0  0  0  0  0
  1  3  1  0  0  0  0
  1  5  1  0  0  0  0
  2  4  1  0  0  0  0
  2 28  1  0  0  0  0
  3  4  1  0  0  0  0
  3  8  1  0  0  0  0
  3  9  1  0  0  0  0
  4  6  1  0  0  0  0
  4 13  1  0  0  0  0
  5  7  1  0  0  0  0
  5 10  1  0  0  0  0
  5 11  1  0  0  0  0
  6  7  1  0  0  0  0
  6 14  1  0  0  0  0
  6 15  1  0  0  0  0
  7 16  1  0  0  0  0
  7 17  1  0  0  0  0
  8 18  1  0  0  0  0
  8 19  1  0  0  0  0
  8 20  1  0  0  0  0
  9 21  1  0  0  0  0
  9 22  1  0  0  0  0
  9 23  1  0  0  0  0
 10 24  1  0  0  0  0
 10 25  1  0  0  0  0
 10 26  1  0  0  0  0
 11 12  2  0  0  0  0
 11 27  1  0  0  0  0
 12 29  1  0  0  0  0
 12 30  1  0  0  0  0
M  END
> <PUBCHEM_COMPOUND_CID>
6427788

> <PUBCHEM_CONFORMER_RMSD>
0.6

> <PUBCHEM_CONFORMER_DIVERSEORDER>
4
3
2
1

> <PUBCHEM_MMFF94_PARTIAL_CHARGES>
11
1 -0.56
11 -0.29
12 -0.3
2 -0.68
27 0.15
28 0.4
29 0.15
3 0.28
30 0.15
4 0.28
5 0.42

> <PUBCHEM_EFFECTIVE_ROTOR_COUNT>
2.2

> <PUBCHEM_PHARMACOPHORE_FEATURES>
6
1 1 acceptor
1 12 hydrophobe
1 2 acceptor
1 2 donor
3 3 8 9 hydrophobe
6 1 3 4 5 6 7 rings

> <PUBCHEM_HEAVY_ATOM_COUNT>
12

> <PUBCHEM_ATOM_DEF_STEREO_COUNT>
2

> <PUBCHEM_ATOM_UDEF_STEREO_COUNT>
0

> <PUBCHEM_BOND_DEF_STEREO_COUNT>
0

> <PUBCHEM_BOND_UDEF_STEREO_COUNT>
0

> <PUBCHEM_ISOTOPIC_ATOM_COUNT>
0

> <PUBCHEM_COMPONENT_COUNT>
1

> <PUBCHEM_CACTVS_TAUTO_COUNT>
1

> <PUBCHEM_CONFORMER_ID>
0062148C00000004

> <PUBCHEM_MMFF94_ENERGY>
38.9243

> <PUBCHEM_FEATURE_SELFOVERLAP>
30.446

> <PUBCHEM_SHAPE_FINGERPRINT>
11206711 2 18343576343825229757
12423570 1 15447564747674958757
12897270 3 18411701027735911612
13024252 1 16588590953665993798
14817 1 13101931408836837059
15310529 11 17458610229575396919
15775835 57 18335991912748855340
16945 1 18269257088733920895
19837323 101 18129685065603105560
20082192 1 18194962933257384392
20511035 2 17696452006387112215
20653085 51 18265638561997451500
21040471 1 18127115377821550298
21922407 69 17822566127431557786
23235685 24 18344144808463820303
23552423 10 18266457594532686567
23559900 14 17702946921459211910
241688 4 17982168920374509611
2748010 2 18126281939481273207
353137 74 18335418019023422628
369184 2 15213297560179435012
430814 3 17771088010884221088
5084963 1 18200306611360893166
528886 8 18342177829316763478
53812653 8 18410008849080807799
68250623 7 17678444286715032817

> <PUBCHEM_SHAPE_MULTIPOLES>
235.22
3.55
1.81
1.27
1
0.13
0.67
0.72
-0.69
-0.44
-0.4
0.08
0.01
-0.51

> <PUBCHEM_SHAPE_SELFOVERLAP>
467.29

> <PUBCHEM_SHAPE_VOLUME>
140.4

> <PUBCHEM_COORDINATE_TYPE>
2
5
10

$$$$
