6428543
  -OEChem-11232108483D

 26 25  0     1  0  0  0  0  0999 V2000
    1.8165    1.7937   -0.4480 O   0  0  0  0  0  0  0  0  0  0  0  0
    2.5327   -0.6317   -1.3023 O   0  0  0  0  0  0  0  0  0  0  0  0
   -0.7452    0.2665   -0.0877 C   0  0  0  0  0  0  0  0  0  0  0  0
    0.2593    0.6704    1.0007 C   0  0  0  0  0  0  0  0  0  0  0  0
   -2.1783    0.1216    0.4351 C   0  0  0  0  0  0  0  0  0  0  0  0
    1.7046    0.7452    0.5002 C   0  0  1  0  0  0  0  0  0  0  0  0
   -3.1869   -0.2518   -0.6522 C   0  0  0  0  0  0  0  0  0  0  0  0
    2.1834   -0.5610   -0.1237 C   0  0  0  0  0  0  0  0  0  0  0  0
   -4.5934   -0.3729   -0.0850 C   0  0  0  0  0  0  0  0  0  0  0  0
    2.2074   -1.7800    0.7627 C   0  0  0  0  0  0  0  0  0  0  0  0
   -0.4478   -0.6867   -0.5396 H   0  0  0  0  0  0  0  0  0  0  0  0
   -0.7312    1.0145   -0.8897 H   0  0  0  0  0  0  0  0  0  0  0  0
   -0.0336    1.6520    1.3936 H   0  0  0  0  0  0  0  0  0  0  0  0
    0.1939   -0.0427    1.8309 H   0  0  0  0  0  0  0  0  0  0  0  0
   -2.1961   -0.6414    1.2233 H   0  0  0  0  0  0  0  0  0  0  0  0
   -2.4845    1.0661    0.9021 H   0  0  0  0  0  0  0  0  0  0  0  0
    2.3700    0.9862    1.3367 H   0  0  0  0  0  0  0  0  0  0  0  0
   -2.8993   -1.2034   -1.1139 H   0  0  0  0  0  0  0  0  0  0  0  0
   -3.1799    0.5083   -1.4419 H   0  0  0  0  0  0  0  0  0  0  0  0
   -5.2992   -0.6408   -0.8773 H   0  0  0  0  0  0  0  0  0  0  0  0
   -4.6396   -1.1472    0.6873 H   0  0  0  0  0  0  0  0  0  0  0  0
   -4.9213    0.5736    0.3565 H   0  0  0  0  0  0  0  0  0  0  0  0
    2.7603    1.9001   -0.6570 H   0  0  0  0  0  0  0  0  0  0  0  0
    1.1894   -2.1330    0.9402 H   0  0  0  0  0  0  0  0  0  0  0  0
    2.6940   -1.5369    1.7107 H   0  0  0  0  0  0  0  0  0  0  0  0
    2.7802   -2.5745    0.2759 H   0  0  0  0  0  0  0  0  0  0  0  0
  1  6  1  0  0  0  0
  1 23  1  0  0  0  0
  2  8  2  0  0  0  0
  3  4  1  0  0  0  0
  3  5  1  0  0  0  0
  3 11  1  0  0  0  0
  3 12  1  0  0  0  0
  4  6  1  0  0  0  0
  4 13  1  0  0  0  0
  4 14  1  0  0  0  0
  5  7  1  0  0  0  0
  5 15  1  0  0  0  0
  5 16  1  0  0  0  0
  6  8  1  0  0  0  0
  6 17  1  0  0  0  0
  7  9  1  0  0  0  0
  7 18  1  0  0  0  0
  7 19  1  0  0  0  0
  8 10  1  0  0  0  0
  9 20  1  0  0  0  0
  9 21  1  0  0  0  0
  9 22  1  0  0  0  0
 10 24  1  0  0  0  0
 10 25  1  0  0  0  0
 10 26  1  0  0  0  0
M  END
> <PUBCHEM_COMPOUND_CID>
6428543

> <PUBCHEM_CONFORMER_RMSD>
0.6

> <PUBCHEM_CONFORMER_DIVERSEORDER>
5
163
10
177
179
174
86
142
182
90
110
22
152
159
8
166
52
178
18
162
40
116
144
143
27
137
1
126
35
102
147
44
170
164
155
63
157
14
120
123
167
30
173
141
172
49
183
145
114
50
39
11
171
168
68
7
128
140
47
176
42
180
48
118
121
70
175
28
160
60
146
97
158
101
57
111
138
32
4
45
66
151
169
24
58
105
156
77
80
64
124
130
69
19
3
89
98
149
83
95
53
37
73
33
133
59
72
99
139
106
20
136
181
71
21
26
150
112
113
103
36
135
13
12
15
65
109
54
34
131
29
23
107
76
93
148
67
94
104
92
17
51
2
81
25
115
125
88
56
122
100
161
6
79
62
129
43
74
9
119
108
75
91
82
154
117
61
132
78
46
41
96
87
16
134
38
55
31
153
165
85
127
84

> <PUBCHEM_MMFF94_PARTIAL_CHARGES>
6
1 -0.68
10 0.06
2 -0.57
23 0.4
6 0.34
8 0.45

> <PUBCHEM_EFFECTIVE_ROTOR_COUNT>
5

> <PUBCHEM_PHARMACOPHORE_FEATURES>
5
1 1 acceptor
1 1 donor
1 2 acceptor
1 9 hydrophobe
4 3 4 5 7 hydrophobe

> <PUBCHEM_HEAVY_ATOM_COUNT>
10

> <PUBCHEM_ATOM_DEF_STEREO_COUNT>
0

> <PUBCHEM_ATOM_UDEF_STEREO_COUNT>
1

> <PUBCHEM_BOND_DEF_STEREO_COUNT>
0

> <PUBCHEM_BOND_UDEF_STEREO_COUNT>
0

> <PUBCHEM_ISOTOPIC_ATOM_COUNT>
0

> <PUBCHEM_COMPONENT_COUNT>
1

> <PUBCHEM_CACTVS_TAUTO_COUNT>
5

> <PUBCHEM_CONFORMER_ID>
0062177F00000005

> <PUBCHEM_MMFF94_ENERGY>
1.0691

> <PUBCHEM_FEATURE_SELFOVERLAP>
25.38

> <PUBCHEM_SHAPE_FINGERPRINT>
12932764 1 18335416864046270663
14252887 29 17704073992715713586
14390081 3 13045947901903028751
177051 138 17275103925264737567
18186145 218 18408321077863957497
20201158 50 18334857207831969458
20279233 1 18040715904772345603
20645477 70 18342736325863969671
20653091 64 18343585114327744216
20742870 56 18337102376564016659
20871998 22 17774162288682694110
23552333 60 18131069350747861088
23552423 10 18411421708759066809
3248919 1 18336542806813291105
522135 26 18334856113232155867

> <PUBCHEM_SHAPE_MULTIPOLES>
194.06
6.53
1.38
1
8.2
0.03
-0.07
1.81
-0.96
-1.37
0.11
-0.42
0.07
-0.22

> <PUBCHEM_SHAPE_SELFOVERLAP>
352.189

> <PUBCHEM_SHAPE_VOLUME>
124.5

> <PUBCHEM_COORDINATE_TYPE>
2
5
10

$$$$
