6428574
  -OEChem-11232109183D

 30 30  0     1  0  0  0  0  0999 V2000
    0.0806    1.1820   -0.2997 O   0  0  0  0  0  0  0  0  0  0  0  0
   -2.6368   -1.3092    0.0470 O   0  0  0  0  0  0  0  0  0  0  0  0
   -1.1564    0.6277    0.1794 C   0  0  0  0  0  0  0  0  0  0  0  0
   -1.4894   -0.6992   -0.5329 C   0  0  1  0  0  0  0  0  0  0  0  0
    1.2367    0.3357   -0.3841 C   0  0  1  0  0  0  0  0  0  0  0  0
   -0.3162   -1.6717   -0.4962 C   0  0  0  0  0  0  0  0  0  0  0  0
    0.9173   -0.9992   -1.0776 C   0  0  0  0  0  0  0  0  0  0  0  0
   -2.2268    1.6751   -0.1809 C   0  0  0  0  0  0  0  0  0  0  0  0
   -1.1503    0.4994    1.7124 C   0  0  0  0  0  0  0  0  0  0  0  0
    2.2520    1.1083   -1.2399 C   0  0  0  0  0  0  0  0  0  0  0  0
    1.8623    0.1481    0.9698 C   0  0  0  0  0  0  0  0  0  0  0  0
    2.6272   -0.8972    1.3024 C   0  0  0  0  0  0  0  0  0  0  0  0
   -1.7186   -0.5038   -1.5890 H   0  0  0  0  0  0  0  0  0  0  0  0
   -0.5649   -2.5679   -1.0779 H   0  0  0  0  0  0  0  0  0  0  0  0
   -0.1340   -2.0285    0.5237 H   0  0  0  0  0  0  0  0  0  0  0  0
    1.7606   -1.6954   -1.1126 H   0  0  0  0  0  0  0  0  0  0  0  0
    0.6872   -0.7885   -2.1327 H   0  0  0  0  0  0  0  0  0  0  0  0
   -3.2245    1.3947    0.1705 H   0  0  0  0  0  0  0  0  0  0  0  0
   -1.9747    2.6500    0.2538 H   0  0  0  0  0  0  0  0  0  0  0  0
   -2.2714    1.8283   -1.2655 H   0  0  0  0  0  0  0  0  0  0  0  0
   -0.5151   -0.3199    2.0585 H   0  0  0  0  0  0  0  0  0  0  0  0
   -0.7704    1.4165    2.1770 H   0  0  0  0  0  0  0  0  0  0  0  0
   -2.1554    0.3108    2.1057 H   0  0  0  0  0  0  0  0  0  0  0  0
    3.1795    0.5451   -1.3929 H   0  0  0  0  0  0  0  0  0  0  0  0
    1.8292    1.3439   -2.2240 H   0  0  0  0  0  0  0  0  0  0  0  0
    2.5051    2.0724   -0.7813 H   0  0  0  0  0  0  0  0  0  0  0  0
    1.7362    0.9424    1.7019 H   0  0  0  0  0  0  0  0  0  0  0  0
   -3.4067   -0.7521   -0.1551 H   0  0  0  0  0  0  0  0  0  0  0  0
    3.0658   -0.9393    2.2950 H   0  0  0  0  0  0  0  0  0  0  0  0
    2.8628   -1.7182    0.6395 H   0  0  0  0  0  0  0  0  0  0  0  0
  1  3  1  0  0  0  0
  1  5  1  0  0  0  0
  2  4  1  0  0  0  0
  2 28  1  0  0  0  0
  3  4  1  0  0  0  0
  3  8  1  0  0  0  0
  3  9  1  0  0  0  0
  4  6  1  0  0  0  0
  4 13  1  0  0  0  0
  5  7  1  0  0  0  0
  5 10  1  0  0  0  0
  5 11  1  0  0  0  0
  6  7  1  0  0  0  0
  6 14  1  0  0  0  0
  6 15  1  0  0  0  0
  7 16  1  0  0  0  0
  7 17  1  0  0  0  0
  8 18  1  0  0  0  0
  8 19  1  0  0  0  0
  8 20  1  0  0  0  0
  9 21  1  0  0  0  0
  9 22  1  0  0  0  0
  9 23  1  0  0  0  0
 10 24  1  0  0  0  0
 10 25  1  0  0  0  0
 10 26  1  0  0  0  0
 11 12  2  0  0  0  0
 11 27  1  0  0  0  0
 12 29  1  0  0  0  0
 12 30  1  0  0  0  0
M  END
> <PUBCHEM_COMPOUND_CID>
6428574

> <PUBCHEM_CONFORMER_RMSD>
0.6

> <PUBCHEM_CONFORMER_DIVERSEORDER>
2
5
3
4
1

> <PUBCHEM_MMFF94_PARTIAL_CHARGES>
11
1 -0.56
11 -0.29
12 -0.3
2 -0.68
27 0.15
28 0.4
29 0.15
3 0.28
30 0.15
4 0.28
5 0.42

> <PUBCHEM_EFFECTIVE_ROTOR_COUNT>
2.2

> <PUBCHEM_PHARMACOPHORE_FEATURES>
6
1 1 acceptor
1 12 hydrophobe
1 2 acceptor
1 2 donor
3 3 8 9 hydrophobe
6 1 3 4 5 6 7 rings

> <PUBCHEM_HEAVY_ATOM_COUNT>
12

> <PUBCHEM_ATOM_DEF_STEREO_COUNT>
2

> <PUBCHEM_ATOM_UDEF_STEREO_COUNT>
0

> <PUBCHEM_BOND_DEF_STEREO_COUNT>
0

> <PUBCHEM_BOND_UDEF_STEREO_COUNT>
0

> <PUBCHEM_ISOTOPIC_ATOM_COUNT>
0

> <PUBCHEM_COMPONENT_COUNT>
1

> <PUBCHEM_CACTVS_TAUTO_COUNT>
1

> <PUBCHEM_CONFORMER_ID>
0062179E00000002

> <PUBCHEM_MMFF94_ENERGY>
38.0509

> <PUBCHEM_FEATURE_SELFOVERLAP>
30.446

> <PUBCHEM_SHAPE_FINGERPRINT>
10857977 72 17703228545783675739
12423570 1 15092857722250720702
13024252 1 15287312109011023282
14817 1 13209156530070245874
15310529 11 17749665315486347527
15775835 57 18410295821842777024
15852999 172 17984684646054881311
16945 1 18199741604133896591
18511873 20 17460583728208755761
20082192 1 18268447774976856332
20511035 2 17986110699624838495
21040471 1 18199754656497285069
21922407 69 17895198860645457962
23419403 2 15187905563444487367
23552423 10 18259985959364836542
241688 4 18127148397514453623
2748010 2 18201166433891206519
369184 2 17631712937757958754
5084963 1 18201451254489120022
68250623 7 17967812751790565841

> <PUBCHEM_SHAPE_MULTIPOLES>
235.22
3.46
1.66
1.39
0.21
0.19
-0.39
-0.19
-0.48
-0.57
0.35
0.61
-0.09
-0.46

> <PUBCHEM_SHAPE_SELFOVERLAP>
467.804

> <PUBCHEM_SHAPE_VOLUME>
140.3

> <PUBCHEM_COORDINATE_TYPE>
2
5
10

$$$$
