6428089
  -OEChem-11232109183D

 36 36  0     1  0  0  0  0  0999 V2000
    0.0509   -2.8636    1.6773 O   0  0  0  0  0  0  0  0  0  0  0  0
   -3.5815    0.8007    0.0212 O   0  0  0  0  0  0  0  0  0  0  0  0
   -1.6070    1.9892   -0.0890 O   0  0  0  0  0  0  0  0  0  0  0  0
   -0.2900   -0.4430   -0.9117 C   0  0  1  0  0  0  0  0  0  0  0  0
    0.0700   -0.7130    0.5615 C   0  0  1  0  0  0  0  0  0  0  0  0
    0.1827   -1.6962   -1.6567 C   0  0  0  0  0  0  0  0  0  0  0  0
   -0.1257   -2.8625   -0.7263 C   0  0  0  0  0  0  0  0  0  0  0  0
    0.0051   -2.2257    0.6323 C   0  0  0  0  0  0  0  0  0  0  0  0
   -1.7933   -0.2179   -1.0914 C   0  0  0  0  0  0  0  0  0  0  0  0
    1.4711   -0.2412    0.9230 C   0  0  0  0  0  0  0  0  0  0  0  0
    1.5605    1.2574    0.9376 C   0  0  0  0  0  0  0  0  0  0  0  0
   -2.2777    0.9965   -0.3366 C   0  0  0  0  0  0  0  0  0  0  0  0
    2.4151    1.9620    0.1813 C   0  0  0  0  0  0  0  0  0  0  0  0
    3.3896    1.3410   -0.7750 C   0  0  0  0  0  0  0  0  0  0  0  0
   -4.1881    1.8726    0.7503 C   0  0  0  0  0  0  0  0  0  0  0  0
    4.7184    1.0434   -0.0978 C   0  0  0  0  0  0  0  0  0  0  0  0
    0.2307    0.4353   -1.3097 H   0  0  0  0  0  0  0  0  0  0  0  0
   -0.6701   -0.3046    1.2582 H   0  0  0  0  0  0  0  0  0  0  0  0
    1.2655   -1.6384   -1.8244 H   0  0  0  0  0  0  0  0  0  0  0  0
   -0.2932   -1.8186   -2.6348 H   0  0  0  0  0  0  0  0  0  0  0  0
    0.5901   -3.6780   -0.8502 H   0  0  0  0  0  0  0  0  0  0  0  0
   -1.1491   -3.2245   -0.8563 H   0  0  0  0  0  0  0  0  0  0  0  0
   -2.3520   -1.0941   -0.7416 H   0  0  0  0  0  0  0  0  0  0  0  0
   -2.0340   -0.0684   -2.1500 H   0  0  0  0  0  0  0  0  0  0  0  0
    2.2182   -0.7262    0.2889 H   0  0  0  0  0  0  0  0  0  0  0  0
    1.7073   -0.5858    1.9391 H   0  0  0  0  0  0  0  0  0  0  0  0
    0.9023    1.7928    1.6171 H   0  0  0  0  0  0  0  0  0  0  0  0
    2.4249    3.0448    0.2730 H   0  0  0  0  0  0  0  0  0  0  0  0
    2.9924    0.4426   -1.2571 H   0  0  0  0  0  0  0  0  0  0  0  0
    3.5590    2.0528   -1.5926 H   0  0  0  0  0  0  0  0  0  0  0  0
    4.6026    0.3068    0.7042 H   0  0  0  0  0  0  0  0  0  0  0  0
    5.4296    0.6394   -0.8255 H   0  0  0  0  0  0  0  0  0  0  0  0
    5.1564    1.9503    0.3328 H   0  0  0  0  0  0  0  0  0  0  0  0
   -5.2203    1.5904    0.9740 H   0  0  0  0  0  0  0  0  0  0  0  0
   -4.1962    2.7846    0.1457 H   0  0  0  0  0  0  0  0  0  0  0  0
   -3.6568    2.0376    1.6925 H   0  0  0  0  0  0  0  0  0  0  0  0
  1  8  2  0  0  0  0
  2 12  1  0  0  0  0
  2 15  1  0  0  0  0
  3 12  2  0  0  0  0
  4  5  1  0  0  0  0
  4  6  1  0  0  0  0
  4  9  1  0  0  0  0
  4 17  1  0  0  0  0
  5  8  1  0  0  0  0
  5 10  1  0  0  0  0
  5 18  1  0  0  0  0
  6  7  1  0  0  0  0
  6 19  1  0  0  0  0
  6 20  1  0  0  0  0
  7  8  1  0  0  0  0
  7 21  1  0  0  0  0
  7 22  1  0  0  0  0
  9 12  1  0  0  0  0
  9 23  1  0  0  0  0
  9 24  1  0  0  0  0
 10 11  1  0  0  0  0
 10 25  1  0  0  0  0
 10 26  1  0  0  0  0
 11 13  2  0  0  0  0
 11 27  1  0  0  0  0
 13 14  1  0  0  0  0
 13 28  1  0  0  0  0
 14 16  1  0  0  0  0
 14 29  1  0  0  0  0
 14 30  1  0  0  0  0
 15 34  1  0  0  0  0
 15 35  1  0  0  0  0
 15 36  1  0  0  0  0
 16 31  1  0  0  0  0
 16 32  1  0  0  0  0
 16 33  1  0  0  0  0
M  END
> <PUBCHEM_COMPOUND_CID>
6428089

> <PUBCHEM_CONFORMER_RMSD>
0.8

> <PUBCHEM_CONFORMER_DIVERSEORDER>
1
86
83
66
13
46
88
95
91
10
87
99
84
90
69
97
58
34
100
89
17
48
27
54
85
30
67
53
59
51
73
68
15
60
65
79
55
81
102
80
47
49
101
7
93
28
64
18
38
14
76
70
12
2
61
77
94
6
45
75
36
16
98
22
29
82
8
42
11
96
72
71
39
74
35
4
52
19
62
31
3
44
24
26
21
20
92
57
56
5
32
9
63
78
43
40
25
50
41
33
23
37

> <PUBCHEM_MMFF94_PARTIAL_CHARGES>
15
1 -0.57
10 0.14
11 -0.29
12 0.66
13 -0.29
14 0.14
15 0.28
2 -0.43
27 0.15
28 0.15
3 -0.57
5 0.06
7 0.06
8 0.45
9 0.06

> <PUBCHEM_EFFECTIVE_ROTOR_COUNT>
6.8

> <PUBCHEM_PHARMACOPHORE_FEATURES>
4
1 1 acceptor
1 16 hydrophobe
1 3 acceptor
5 4 5 6 7 8 rings

> <PUBCHEM_HEAVY_ATOM_COUNT>
16

> <PUBCHEM_ATOM_DEF_STEREO_COUNT>
2

> <PUBCHEM_ATOM_UDEF_STEREO_COUNT>
0

> <PUBCHEM_BOND_DEF_STEREO_COUNT>
1

> <PUBCHEM_BOND_UDEF_STEREO_COUNT>
0

> <PUBCHEM_ISOTOPIC_ATOM_COUNT>
0

> <PUBCHEM_COMPONENT_COUNT>
1

> <PUBCHEM_CACTVS_TAUTO_COUNT>
3

> <PUBCHEM_CONFORMER_ID>
006215B900000001

> <PUBCHEM_MMFF94_ENERGY>
20.8576

> <PUBCHEM_FEATURE_SELFOVERLAP>
20.297

> <PUBCHEM_SHAPE_FINGERPRINT>
10382601 240 18194978339484904137
10922049 32 18411706499318485623
12808571 1 18410562994414614742
14817 1 13283141464954667431
15775835 57 18413105060929660692
15906896 17 18193556894082598130
16945 1 18125699228304051991
17834072 14 9367351396632236736
19837323 101 18123456443869444114
20600515 1 8070023402235583424
20645476 183 18334572490445074428
20671657 1 17844802599379093925
20711985 344 17979062018552945698
21524375 3 18411412925466524437
22802520 49 17982729976627161472
23419403 2 17621655674802752659
23557571 272 17475494545149071464
23558518 356 18051405468154898125
25 1 18343304743004680044
2637199 183 18411423903593031832
2748010 2 13649689105212180645
298252 57 17989767799873763894
31174 14 18048598119302017341
347723 3 15482400780451392349
430814 3 18261661636586562972
57210444 14 18271258187291101070
5845 1 10117215595170896244
6138700 20 18125168126414462838
7364860 26 18125443012330624765
81228 2 17760631956020308153
81539 233 18337389327571522709

> <PUBCHEM_SHAPE_MULTIPOLES>
311.66
5.96
3.16
1.32
1.88
1.85
-0.04
-6.52
0.09
-0.92
-0.47
0
0.75
-0.43

> <PUBCHEM_SHAPE_SELFOVERLAP>
617.965

> <PUBCHEM_SHAPE_VOLUME>
187.1

> <PUBCHEM_COORDINATE_TYPE>
2
5
10

$$$$
