6428443
  -OEChem-11232109193D

 41 43  0     1  0  0  0  0  0999 V2000
   -0.2728   -0.0101   -0.3444 O   0  0  0  0  0  0  0  0  0  0  0  0
   -1.0719   -2.1545   -0.1954 O   0  0  0  0  0  0  0  0  0  0  0  0
    2.1119    0.6270   -0.5371 C   0  0  1  0  0  0  0  0  0  0  0  0
    3.4143   -0.1099   -0.1000 C   0  0  0  0  0  0  0  0  0  0  0  0
    2.7570   -0.5624    1.2312 C   0  0  2  0  0  0  0  0  0  0  0  0
    1.0473   -0.5096   -0.4692 C   0  0  1  0  0  0  0  0  0  0  0  0
    1.8502    1.5949    0.6515 C   0  0  0  0  0  0  0  0  0  0  0  0
    1.4775   -1.3056    0.7770 C   0  0  0  0  0  0  0  0  0  0  0  0
    2.2858    0.7634    1.8698 C   0  0  0  0  0  0  0  0  0  0  0  0
    2.1369    1.3416   -1.8752 C   0  0  0  0  0  0  0  0  0  0  0  0
    3.8555   -1.2735   -1.0112 C   0  0  0  0  0  0  0  0  0  0  0  0
    4.6579    0.7829    0.0829 C   0  0  0  0  0  0  0  0  0  0  0  0
   -1.2722   -0.9444   -0.2105 C   0  0  0  0  0  0  0  0  0  0  0  0
   -2.5853   -0.3088   -0.0914 C   0  0  0  0  0  0  0  0  0  0  0  0
   -3.7210   -1.0977    0.0515 C   0  0  0  0  0  0  0  0  0  0  0  0
   -2.6839    1.0775   -0.1220 C   0  0  0  0  0  0  0  0  0  0  0  0
   -4.9724   -0.4921    0.1652 C   0  0  0  0  0  0  0  0  0  0  0  0
   -3.9354    1.6831   -0.0081 C   0  0  0  0  0  0  0  0  0  0  0  0
   -5.0795    0.8982    0.1355 C   0  0  0  0  0  0  0  0  0  0  0  0
    3.3897   -1.1589    1.8927 H   0  0  0  0  0  0  0  0  0  0  0  0
    1.0914   -1.1329   -1.3709 H   0  0  0  0  0  0  0  0  0  0  0  0
    0.8050    1.9100    0.7313 H   0  0  0  0  0  0  0  0  0  0  0  0
    2.4488    2.5095    0.5749 H   0  0  0  0  0  0  0  0  0  0  0  0
    1.7138   -2.3413    0.5099 H   0  0  0  0  0  0  0  0  0  0  0  0
    0.7267   -1.3318    1.5737 H   0  0  0  0  0  0  0  0  0  0  0  0
    3.0989    1.2600    2.4096 H   0  0  0  0  0  0  0  0  0  0  0  0
    1.4629    0.6194    2.5779 H   0  0  0  0  0  0  0  0  0  0  0  0
    2.9124    2.1139   -1.9003 H   0  0  0  0  0  0  0  0  0  0  0  0
    2.3333    0.6440   -2.6956 H   0  0  0  0  0  0  0  0  0  0  0  0
    1.1764    1.8288   -2.0755 H   0  0  0  0  0  0  0  0  0  0  0  0
    4.6778   -1.8292   -0.5453 H   0  0  0  0  0  0  0  0  0  0  0  0
    3.0750   -2.0038   -1.2327 H   0  0  0  0  0  0  0  0  0  0  0  0
    4.2151   -0.8943   -1.9745 H   0  0  0  0  0  0  0  0  0  0  0  0
    4.4913    1.6739    0.6915 H   0  0  0  0  0  0  0  0  0  0  0  0
    5.4643    0.2183    0.5653 H   0  0  0  0  0  0  0  0  0  0  0  0
    5.0298    1.1309   -0.8876 H   0  0  0  0  0  0  0  0  0  0  0  0
   -3.6576   -2.1821    0.0770 H   0  0  0  0  0  0  0  0  0  0  0  0
   -1.8207    1.7273   -0.2321 H   0  0  0  0  0  0  0  0  0  0  0  0
   -5.8634   -1.1029    0.2771 H   0  0  0  0  0  0  0  0  0  0  0  0
   -4.0197    2.7657   -0.0312 H   0  0  0  0  0  0  0  0  0  0  0  0
   -6.0538    1.3698    0.2242 H   0  0  0  0  0  0  0  0  0  0  0  0
  1  6  1  0  0  0  0
  1 13  1  0  0  0  0
  2 13  2  0  0  0  0
  3  4  1  0  0  0  0
  3  6  1  0  0  0  0
  3  7  1  0  0  0  0
  3 10  1  0  0  0  0
  4  5  1  0  0  0  0
  4 11  1  0  0  0  0
  4 12  1  0  0  0  0
  5  8  1  0  0  0  0
  5  9  1  0  0  0  0
  5 20  1  0  0  0  0
  6  8  1  0  0  0  0
  6 21  1  0  0  0  0
  7  9  1  0  0  0  0
  7 22  1  0  0  0  0
  7 23  1  0  0  0  0
  8 24  1  0  0  0  0
  8 25  1  0  0  0  0
  9 26  1  0  0  0  0
  9 27  1  0  0  0  0
 10 28  1  0  0  0  0
 10 29  1  0  0  0  0
 10 30  1  0  0  0  0
 11 31  1  0  0  0  0
 11 32  1  0  0  0  0
 11 33  1  0  0  0  0
 12 34  1  0  0  0  0
 12 35  1  0  0  0  0
 12 36  1  0  0  0  0
 13 14  1  0  0  0  0
 14 15  2  0  0  0  0
 14 16  1  0  0  0  0
 15 17  1  0  0  0  0
 15 37  1  0  0  0  0
 16 18  2  0  0  0  0
 16 38  1  0  0  0  0
 17 19  2  0  0  0  0
 17 39  1  0  0  0  0
 18 19  1  0  0  0  0
 18 40  1  0  0  0  0
 19 41  1  0  0  0  0
M  END
> <PUBCHEM_COMPOUND_CID>
6428443

> <PUBCHEM_CONFORMER_RMSD>
0.6

> <PUBCHEM_CONFORMER_DIVERSEORDER>
1
5
3
4
2

> <PUBCHEM_MMFF94_PARTIAL_CHARGES>
15
1 -0.43
13 0.63
14 0.09
15 -0.15
16 -0.15
17 -0.15
18 -0.15
19 -0.15
2 -0.57
37 0.15
38 0.15
39 0.15
40 0.15
41 0.15
6 0.28

> <PUBCHEM_EFFECTIVE_ROTOR_COUNT>
4

> <PUBCHEM_PHARMACOPHORE_FEATURES>
4
1 2 acceptor
3 4 11 12 hydrophobe
6 14 15 16 17 18 19 rings
7 3 4 5 6 7 8 9 rings

> <PUBCHEM_HEAVY_ATOM_COUNT>
19

> <PUBCHEM_ATOM_DEF_STEREO_COUNT>
3

> <PUBCHEM_ATOM_UDEF_STEREO_COUNT>
0

> <PUBCHEM_BOND_DEF_STEREO_COUNT>
0

> <PUBCHEM_BOND_UDEF_STEREO_COUNT>
0

> <PUBCHEM_ISOTOPIC_ATOM_COUNT>
0

> <PUBCHEM_COMPONENT_COUNT>
1

> <PUBCHEM_CACTVS_TAUTO_COUNT>
1

> <PUBCHEM_CONFORMER_ID>
0062171B00000001

> <PUBCHEM_MMFF94_ENERGY>
81.7554

> <PUBCHEM_FEATURE_SELFOVERLAP>
20.297

> <PUBCHEM_SHAPE_FINGERPRINT>
10354089 29 17748831808315725945
10366900 7 15864077576290773709
10498660 4 18409164377244126325
10646746 165 18343299262658013385
12107183 9 17538270740614277777
12236239 1 17967813855407250325
12251169 10 17894630361752597727
12403259 415 18273210898483226681
12500047 106 18130502032807762638
128620 24 9511457831791460185
12916748 109 18411705382954023363
13134695 92 16558745694441684816
13224815 77 18408318895967817133
13583140 156 17418086663376834439
13675066 3 18343018904351746023
14178342 30 18117259553417781386
14252887 29 14273735127296004850
14341114 176 18260272927836697635
15048467 5 18411136974704200532
15196674 1 18411982442630676009
15788980 27 17132112425039782983
1601671 61 18259985938137731748
16945 1 15357689795885538862
17349148 13 18186794808131693919
1813 80 17242162454181746938
18186145 218 17418380198853547667
19078846 21 17967805016528364784
200 152 11383833770548473719
20233049 118 18342175557542905480
20645477 70 16845301518536933902
21033648 29 18201425970296464049
212847 35 18343301444258702777
21503847 285 17822297881065018468
21524375 3 18411983542448518879
221357 26 17775283829282374409
2255824 54 17313390066815711532
22892500 29 17203600498035472688
23402539 116 18059849576027791133
23557571 272 17632014264527263623
23559900 14 18201722842572356646
2637199 183 18040726852486091066
26918003 58 11746932096801129447
3060560 45 16917068837072849174
351380 180 18131347505957568117
474 4 16951699184113722020
5104073 3 18408884027205469507
5281201 14 16200160871895062761
542803 24 18413108359785907653
633830 44 18410570686996616663
9981440 41 17106511671319933140

> <PUBCHEM_SHAPE_MULTIPOLES>
379.27
9.99
1.71
1.22
8.46
0.06
0.07
-1.38
0.12
0.3
-0.1
-1.39
-0.27
0.03

> <PUBCHEM_SHAPE_SELFOVERLAP>
821.684

> <PUBCHEM_SHAPE_VOLUME>
213.2

> <PUBCHEM_COORDINATE_TYPE>
2
5
10

$$$$
