6428928
  -OEChem-11232109053D

 27 26  0     0  0  0  0  0  0999 V2000
    2.2855   -1.9070   -0.2198 O   0  0  0  0  0  0  0  0  0  0  0  0
   -0.8250    1.2339    0.9004 C   0  0  0  0  0  0  0  0  0  0  0  0
    1.5120    0.7877   -0.0474 C   0  0  0  0  0  0  0  0  0  0  0  0
    0.6328    0.8738    0.9703 C   0  0  0  0  0  0  0  0  0  0  0  0
   -1.6908    0.0056    0.8668 C   0  0  0  0  0  0  0  0  0  0  0  0
    2.9622    0.4115    0.0999 C   0  0  0  0  0  0  0  0  0  0  0  0
   -2.6470   -0.3121   -0.0268 C   0  0  0  0  0  0  0  0  0  0  0  0
    1.0669    1.0695   -1.4593 C   0  0  0  0  0  0  0  0  0  0  0  0
   -3.4268   -1.5925    0.1167 C   0  0  0  0  0  0  0  0  0  0  0  0
   -3.0349    0.5155   -1.2192 C   0  0  0  0  0  0  0  0  0  0  0  0
    3.1650   -1.0860    0.0184 C   0  0  0  0  0  0  0  0  0  0  0  0
   -1.0242    1.9324    0.0861 H   0  0  0  0  0  0  0  0  0  0  0  0
   -1.0715    1.7936    1.8121 H   0  0  0  0  0  0  0  0  0  0  0  0
    1.0009    0.6454    1.9702 H   0  0  0  0  0  0  0  0  0  0  0  0
   -1.5239   -0.6845    1.6942 H   0  0  0  0  0  0  0  0  0  0  0  0
    3.5783    0.8937   -0.6660 H   0  0  0  0  0  0  0  0  0  0  0  0
    3.3406    0.7370    1.0759 H   0  0  0  0  0  0  0  0  0  0  0  0
    1.4273    0.2800   -2.1285 H   0  0  0  0  0  0  0  0  0  0  0  0
   -0.0147    1.1107   -1.5955 H   0  0  0  0  0  0  0  0  0  0  0  0
    1.4893    2.0206   -1.8001 H   0  0  0  0  0  0  0  0  0  0  0  0
   -4.4944   -1.3757    0.2275 H   0  0  0  0  0  0  0  0  0  0  0  0
   -3.2893   -2.2208   -0.7694 H   0  0  0  0  0  0  0  0  0  0  0  0
   -3.1149   -2.1769    0.9888 H   0  0  0  0  0  0  0  0  0  0  0  0
   -2.8285   -0.0371   -2.1419 H   0  0  0  0  0  0  0  0  0  0  0  0
   -4.1064    0.7402   -1.1864 H   0  0  0  0  0  0  0  0  0  0  0  0
   -2.5111    1.4705   -1.2840 H   0  0  0  0  0  0  0  0  0  0  0  0
    4.2047   -1.4191    0.1825 H   0  0  0  0  0  0  0  0  0  0  0  0
  1 11  2  0  0  0  0
  2  4  1  0  0  0  0
  2  5  1  0  0  0  0
  2 12  1  0  0  0  0
  2 13  1  0  0  0  0
  3  4  2  0  0  0  0
  3  6  1  0  0  0  0
  3  8  1  0  0  0  0
  4 14  1  0  0  0  0
  5  7  2  0  0  0  0
  5 15  1  0  0  0  0
  6 11  1  0  0  0  0
  6 16  1  0  0  0  0
  6 17  1  0  0  0  0
  7  9  1  0  0  0  0
  7 10  1  0  0  0  0
  8 18  1  0  0  0  0
  8 19  1  0  0  0  0
  8 20  1  0  0  0  0
  9 21  1  0  0  0  0
  9 22  1  0  0  0  0
  9 23  1  0  0  0  0
 10 24  1  0  0  0  0
 10 25  1  0  0  0  0
 10 26  1  0  0  0  0
 11 27  1  0  0  0  0
M  END
> <PUBCHEM_COMPOUND_CID>
6428928

> <PUBCHEM_CONFORMER_RMSD>
0.6

> <PUBCHEM_CONFORMER_DIVERSEORDER>
1
19
58
31
5
77
57
45
23
25
26
65
50
51
67
76
64
47
82
30
15
56
68
44
54
74
62
28
72
37
48
2
73
69
35
34
49
36
18
61
42
53
80
11
41
32
7
39
4
59
81
38
78
6
27
60
22
75
29
63
20
33
70
66
8
17
55
24
12
13
79
43
52
3
10
16
40
46
14
9
71
21

> <PUBCHEM_MMFF94_PARTIAL_CHARGES>
14
1 -0.57
10 0.14
11 0.45
14 0.15
15 0.15
2 0.28
27 0.06
3 -0.28
4 -0.29
5 -0.29
6 0.2
7 -0.28
8 0.14
9 0.14

> <PUBCHEM_EFFECTIVE_ROTOR_COUNT>
4

> <PUBCHEM_PHARMACOPHORE_FEATURES>
3
1 1 acceptor
1 8 hydrophobe
3 7 9 10 hydrophobe

> <PUBCHEM_HEAVY_ATOM_COUNT>
11

> <PUBCHEM_ATOM_DEF_STEREO_COUNT>
0

> <PUBCHEM_ATOM_UDEF_STEREO_COUNT>
0

> <PUBCHEM_BOND_DEF_STEREO_COUNT>
1

> <PUBCHEM_BOND_UDEF_STEREO_COUNT>
0

> <PUBCHEM_ISOTOPIC_ATOM_COUNT>
0

> <PUBCHEM_COMPONENT_COUNT>
1

> <PUBCHEM_CACTVS_TAUTO_COUNT>
3

> <PUBCHEM_CONFORMER_ID>
0062190000000001

> <PUBCHEM_MMFF94_ENERGY>
8.8503

> <PUBCHEM_FEATURE_SELFOVERLAP>
15.223

> <PUBCHEM_SHAPE_FINGERPRINT>
10149128 111 12612752397843797247
10857977 72 14979955865269493857
10922523 26 18114178631678758597
11769659 78 18411135810050378834
12382932 28 14548743914989412253
12932764 1 17346597503865240433
13705890 14 18259984898650124896
13897977 13 9799395759478273715
14251710 61 18201168671543073094
14350558 41 18410016571469013587
17834072 14 18270102548751054472
18522851 268 18041555948814918559
20201158 50 18409729560253338114
20645477 70 17774718766241596477
20653085 51 17095246912689261245
20671657 53 18336553733262755012
20828058 19 18060133193908423541
20828058 43 10159688118791862121
22169311 14 11815631777980186125
22485316 2 18201718509261519771
22926399 65 15502370097860986908
22959321 28 8502372260808393199
23557571 272 17969767756854164185
549884 4 15574712525434575197
9882013 296 15482088553751513690

> <PUBCHEM_SHAPE_MULTIPOLES>
220.51
6.01
1.62
1.18
1.26
0.67
-0.21
2.63
-0.85
-0.32
-0.07
0.29
-0.45
0.15

> <PUBCHEM_SHAPE_SELFOVERLAP>
411.444

> <PUBCHEM_SHAPE_VOLUME>
138.3

> <PUBCHEM_COORDINATE_TYPE>
2
5
10

$$$$
