6428782
  -OEChem-11232109143D

 17 16  0     0  0  0  0  0  0999 V2000
    3.1655   -0.7179    0.0084 O   0  0  0  0  0  0  0  0  0  0  0  0
   -2.3486    0.3451    0.0281 C   0  0  0  0  0  0  0  0  0  0  0  0
   -0.9015   -0.1463   -0.0181 C   0  0  0  0  0  0  0  0  0  0  0  0
   -3.3311   -0.8153   -0.0073 C   0  0  0  0  0  0  0  0  0  0  0  0
    0.0646    1.0035   -0.0104 C   0  0  0  0  0  0  0  0  0  0  0  0
    1.3938    0.8472   -0.0016 C   0  0  0  0  0  0  0  0  0  0  0  0
    1.9572   -0.5163    0.0008 C   0  0  0  0  0  0  0  0  0  0  0  0
   -2.5187    0.9312    0.9396 H   0  0  0  0  0  0  0  0  0  0  0  0
   -2.5497    1.0075   -0.8228 H   0  0  0  0  0  0  0  0  0  0  0  0
   -0.7637   -0.7402   -0.9298 H   0  0  0  0  0  0  0  0  0  0  0  0
   -0.7296   -0.7890    0.8538 H   0  0  0  0  0  0  0  0  0  0  0  0
   -3.2134   -1.4015   -0.9242 H   0  0  0  0  0  0  0  0  0  0  0  0
   -3.1827   -1.4815    0.8485 H   0  0  0  0  0  0  0  0  0  0  0  0
   -4.3595   -0.4422    0.0274 H   0  0  0  0  0  0  0  0  0  0  0  0
   -0.3311    2.0159   -0.0160 H   0  0  0  0  0  0  0  0  0  0  0  0
    2.0715    1.6918    0.0024 H   0  0  0  0  0  0  0  0  0  0  0  0
    1.2580   -1.3641   -0.0085 H   0  0  0  0  0  0  0  0  0  0  0  0
  1  7  2  0  0  0  0
  2  3  1  0  0  0  0
  2  4  1  0  0  0  0
  2  8  1  0  0  0  0
  2  9  1  0  0  0  0
  3  5  1  0  0  0  0
  3 10  1  0  0  0  0
  3 11  1  0  0  0  0
  4 12  1  0  0  0  0
  4 13  1  0  0  0  0
  4 14  1  0  0  0  0
  5  6  2  0  0  0  0
  5 15  1  0  0  0  0
  6  7  1  0  0  0  0
  6 16  1  0  0  0  0
  7 17  1  0  0  0  0
M  END
> <PUBCHEM_COMPOUND_CID>
6428782

> <PUBCHEM_CONFORMER_RMSD>
0.4

> <PUBCHEM_CONFORMER_DIVERSEORDER>
1
27
14
15
5
18
21
9
24
17
2
22
20
6
25
12
7
13
4
11
8
16
10
26
23
19
3

> <PUBCHEM_MMFF94_PARTIAL_CHARGES>
8
1 -0.57
15 0.15
16 0.15
17 0.06
3 0.14
5 -0.29
6 -0.14
7 0.5

> <PUBCHEM_EFFECTIVE_ROTOR_COUNT>
3

> <PUBCHEM_PHARMACOPHORE_FEATURES>
2
1 1 acceptor
1 4 hydrophobe

> <PUBCHEM_HEAVY_ATOM_COUNT>
7

> <PUBCHEM_ATOM_DEF_STEREO_COUNT>
0

> <PUBCHEM_ATOM_UDEF_STEREO_COUNT>
0

> <PUBCHEM_BOND_DEF_STEREO_COUNT>
1

> <PUBCHEM_BOND_UDEF_STEREO_COUNT>
0

> <PUBCHEM_ISOTOPIC_ATOM_COUNT>
0

> <PUBCHEM_COMPONENT_COUNT>
1

> <PUBCHEM_CACTVS_TAUTO_COUNT>
1

> <PUBCHEM_CONFORMER_ID>
0062186E00000001

> <PUBCHEM_MMFF94_ENERGY>
4.6587

> <PUBCHEM_FEATURE_SELFOVERLAP>
10.148

> <PUBCHEM_SHAPE_FINGERPRINT>
12897270 3 13695588849394747839
12932741 1 16226335935863197113
12932764 1 17632013164815292493
14325111 11 18410856594395251265
21293036 1 14490196028874966331
23552423 10 18187085061383110917
29004967 10 18412262830906794896
5460574 1 9223231844853744769

> <PUBCHEM_SHAPE_MULTIPOLES>
138.19
5.11
1.07
0.6
1.11
0.09
0
-1.97
-0.02
-0.15
0
0.04
0.01
-0.01

> <PUBCHEM_SHAPE_SELFOVERLAP>
247.443

> <PUBCHEM_SHAPE_VOLUME>
89.5

> <PUBCHEM_COORDINATE_TYPE>
2
5
10

$$$$
