6428793
  -OEChem-11232109213D

 30 30  0     0  0  0  0  0  0999 V2000
    3.7991   -0.2426   -1.0983 O   0  0  0  0  0  0  0  0  0  0  0  0
   -1.2062   -0.8807   -0.1482 C   0  0  0  0  0  0  0  0  0  0  0  0
   -0.3820    0.2416   -0.2302 C   0  0  0  0  0  0  0  0  0  0  0  0
   -2.5692   -0.7280    0.1057 C   0  0  0  0  0  0  0  0  0  0  0  0
   -0.9208    1.5167   -0.0579 C   0  0  0  0  0  0  0  0  0  0  0  0
   -3.1079    0.5471    0.2780 C   0  0  0  0  0  0  0  0  0  0  0  0
   -2.2838    1.6694    0.1962 C   0  0  0  0  0  0  0  0  0  0  0  0
   -0.6435   -2.2571   -0.3298 C   0  0  0  0  0  0  0  0  0  0  0  0
    1.0452    0.0846   -0.4962 C   0  0  0  0  0  0  0  0  0  0  0  0
   -3.4752   -1.9123    0.1987 C   0  0  0  0  0  0  0  0  0  0  0  0
   -0.0717    2.7448   -0.1392 C   0  0  0  0  0  0  0  0  0  0  0  0
    1.9912   -0.0857    0.4488 C   0  0  0  0  0  0  0  0  0  0  0  0
    3.4242   -0.2477    0.0718 C   0  0  0  0  0  0  0  0  0  0  0  0
    4.4006   -0.4500    1.2007 C   0  0  0  0  0  0  0  0  0  0  0  0
   -4.1679    0.6840    0.4754 H   0  0  0  0  0  0  0  0  0  0  0  0
   -2.7211    2.6549    0.3334 H   0  0  0  0  0  0  0  0  0  0  0  0
   -1.3521   -2.9328   -0.8189 H   0  0  0  0  0  0  0  0  0  0  0  0
    0.2396   -2.2709   -0.9764 H   0  0  0  0  0  0  0  0  0  0  0  0
   -0.3690   -2.6800    0.6422 H   0  0  0  0  0  0  0  0  0  0  0  0
    1.3129    0.1150   -1.5498 H   0  0  0  0  0  0  0  0  0  0  0  0
   -3.6083   -2.3726   -0.7856 H   0  0  0  0  0  0  0  0  0  0  0  0
   -3.0832   -2.6533    0.9033 H   0  0  0  0  0  0  0  0  0  0  0  0
   -4.4693   -1.6300    0.5636 H   0  0  0  0  0  0  0  0  0  0  0  0
    0.4523    2.7921   -1.0998 H   0  0  0  0  0  0  0  0  0  0  0  0
   -0.6704    3.6589   -0.0586 H   0  0  0  0  0  0  0  0  0  0  0  0
    0.6585    2.7622    0.6765 H   0  0  0  0  0  0  0  0  0  0  0  0
    1.7354   -0.1181    1.5025 H   0  0  0  0  0  0  0  0  0  0  0  0
    4.6520   -1.5109    1.2752 H   0  0  0  0  0  0  0  0  0  0  0  0
    5.3036    0.1344    1.0026 H   0  0  0  0  0  0  0  0  0  0  0  0
    3.9834   -0.1091    2.1521 H   0  0  0  0  0  0  0  0  0  0  0  0
  1 13  2  0  0  0  0
  2  3  1  0  0  0  0
  2  4  2  0  0  0  0
  2  8  1  0  0  0  0
  3  5  2  0  0  0  0
  3  9  1  0  0  0  0
  4  6  1  0  0  0  0
  4 10  1  0  0  0  0
  5  7  1  0  0  0  0
  5 11  1  0  0  0  0
  6  7  2  0  0  0  0
  6 15  1  0  0  0  0
  7 16  1  0  0  0  0
  8 17  1  0  0  0  0
  8 18  1  0  0  0  0
  8 19  1  0  0  0  0
  9 12  2  0  0  0  0
  9 20  1  0  0  0  0
 10 21  1  0  0  0  0
 10 22  1  0  0  0  0
 10 23  1  0  0  0  0
 11 24  1  0  0  0  0
 11 25  1  0  0  0  0
 11 26  1  0  0  0  0
 12 13  1  0  0  0  0
 12 27  1  0  0  0  0
 13 14  1  0  0  0  0
 14 28  1  0  0  0  0
 14 29  1  0  0  0  0
 14 30  1  0  0  0  0
M  END
> <PUBCHEM_COMPOUND_CID>
6428793

> <PUBCHEM_CONFORMER_RMSD>
0.6

> <PUBCHEM_CONFORMER_DIVERSEORDER>
2
3
4
1

> <PUBCHEM_MMFF94_PARTIAL_CHARGES>
18
1 -0.57
10 0.14
11 0.14
12 -0.14
13 0.49
14 0.06
15 0.15
16 0.15
2 -0.14
20 0.15
27 0.15
3 0.03
4 -0.14
5 -0.14
6 -0.15
7 -0.15
8 0.14
9 -0.18

> <PUBCHEM_EFFECTIVE_ROTOR_COUNT>
2

> <PUBCHEM_PHARMACOPHORE_FEATURES>
2
1 1 acceptor
6 2 3 4 5 6 7 rings

> <PUBCHEM_HEAVY_ATOM_COUNT>
14

> <PUBCHEM_ATOM_DEF_STEREO_COUNT>
0

> <PUBCHEM_ATOM_UDEF_STEREO_COUNT>
0

> <PUBCHEM_BOND_DEF_STEREO_COUNT>
1

> <PUBCHEM_BOND_UDEF_STEREO_COUNT>
0

> <PUBCHEM_ISOTOPIC_ATOM_COUNT>
0

> <PUBCHEM_COMPONENT_COUNT>
1

> <PUBCHEM_CACTVS_TAUTO_COUNT>
2

> <PUBCHEM_CONFORMER_ID>
0062187900000002

> <PUBCHEM_MMFF94_ENERGY>
41.6753

> <PUBCHEM_FEATURE_SELFOVERLAP>
10.148

> <PUBCHEM_SHAPE_FINGERPRINT>
10989021 7 18267022932593289445
11132069 177 18341332206037956409
11680986 33 17904203981442145283
12032990 46 18340211876819871175
13024252 1 15502377794716732917
13140716 1 18339933726838905473
13214271 11 18271801315543196173
13862211 1 18339074995294017551
14420673 8 17833823877514795066
14614273 12 18190175677147761181
15219456 202 17846503573842500366
15375462 189 18040435490362471800
15669948 3 18410294739737735406
16945 1 18339372876960863765
17804303 29 18343305889560345097
19049666 15 17700980946711607182
193761 8 17762902464959357071
19422 9 18040436581643068610
200 152 16081080468377211128
20510252 161 18272934907805018416
20871998 184 18272652350517713079
21029758 27 18261403303125764829
21501502 16 18267030638060153973
21650355 55 18410003338638013960
2297311 6 18342469131932735716
2306618 200 17822839884325767869
23366157 5 17898009289554899061
23402539 116 18271794740254357711
23463225 33 18335139756740284446
23557571 272 18201173065178078876
23559900 14 18199472078499924094
23598294 1 18409443665897451642
2748010 2 18339633555474052501
4175511 318 17895186645911702701
43471831 8 18335700486074879283
474 4 17170128186158696244
5902787 121 18335983176610964128
7364860 26 17981892152666358316
77492 1 17749116573464082964
90316 7 18261950748110656144

> <PUBCHEM_SHAPE_MULTIPOLES>
282.24
6.65
2.31
0.84
6.48
0.68
0.03
-2.21
1.28
-1.84
-0.1
0.65
-0.07
-0.14

> <PUBCHEM_SHAPE_SELFOVERLAP>
581.612

> <PUBCHEM_SHAPE_VOLUME>
164.8

> <PUBCHEM_COORDINATE_TYPE>
2
5
10

$$$$
