6428959
  -OEChem-11232109013D

 30 29  0     0  0  0  0  0  0999 V2000
   -1.1841   -1.6773    0.0178 O   0  0  0  0  0  0  0  0  0  0  0  0
   -5.2398    1.3142   -0.0166 O   0  0  0  0  0  0  0  0  0  0  0  0
    2.5215    0.5764    0.0298 C   0  0  0  0  0  0  0  0  0  0  0  0
    1.2976   -0.3454    0.0066 C   0  0  0  0  0  0  0  0  0  0  0  0
    3.8532   -0.1803   -0.0118 C   0  0  0  0  0  0  0  0  0  0  0  0
   -0.0163    0.4345    0.0520 C   0  0  0  0  0  0  0  0  0  0  0  0
    5.1127    0.6886    0.0267 C   0  0  0  0  0  0  0  0  0  0  0  0
   -1.2552   -0.4496    0.0378 C   0  0  0  0  0  0  0  0  0  0  0  0
   -2.5864    0.2893    0.0127 C   0  0  0  0  0  0  0  0  0  0  0  0
    6.4046   -0.1060   -0.0819 C   0  0  0  0  0  0  0  0  0  0  0  0
   -3.7940   -0.6398   -0.0071 C   0  0  0  0  0  0  0  0  0  0  0  0
   -5.1136    0.0954   -0.0661 C   0  0  0  0  0  0  0  0  0  0  0  0
    2.4743    1.2630   -0.8242 H   0  0  0  0  0  0  0  0  0  0  0  0
    2.4913    1.1944    0.9356 H   0  0  0  0  0  0  0  0  0  0  0  0
    1.3439   -1.0343    0.8591 H   0  0  0  0  0  0  0  0  0  0  0  0
    1.3241   -0.9656   -0.8979 H   0  0  0  0  0  0  0  0  0  0  0  0
    3.8865   -0.8819    0.8315 H   0  0  0  0  0  0  0  0  0  0  0  0
    3.8768   -0.7922   -0.9227 H   0  0  0  0  0  0  0  0  0  0  0  0
   -0.0535    1.0432    0.9624 H   0  0  0  0  0  0  0  0  0  0  0  0
   -0.0740    1.1037   -0.8139 H   0  0  0  0  0  0  0  0  0  0  0  0
    5.1248    1.2651    0.9592 H   0  0  0  0  0  0  0  0  0  0  0  0
    5.0748    1.4142   -0.7944 H   0  0  0  0  0  0  0  0  0  0  0  0
   -2.5982    0.9312   -0.8758 H   0  0  0  0  0  0  0  0  0  0  0  0
   -2.6298    0.9354    0.8971 H   0  0  0  0  0  0  0  0  0  0  0  0
    6.4424   -0.6628   -1.0235 H   0  0  0  0  0  0  0  0  0  0  0  0
    6.4937   -0.8197    0.7432 H   0  0  0  0  0  0  0  0  0  0  0  0
    7.2683    0.5652   -0.0475 H   0  0  0  0  0  0  0  0  0  0  0  0
   -3.8059   -1.2735    0.8865 H   0  0  0  0  0  0  0  0  0  0  0  0
   -3.7486   -1.2998   -0.8808 H   0  0  0  0  0  0  0  0  0  0  0  0
   -6.0027   -0.5541   -0.1439 H   0  0  0  0  0  0  0  0  0  0  0  0
  1  8  2  0  0  0  0
  2 12  2  0  0  0  0
  3  4  1  0  0  0  0
  3  5  1  0  0  0  0
  3 13  1  0  0  0  0
  3 14  1  0  0  0  0
  4  6  1  0  0  0  0
  4 15  1  0  0  0  0
  4 16  1  0  0  0  0
  5  7  1  0  0  0  0
  5 17  1  0  0  0  0
  5 18  1  0  0  0  0
  6  8  1  0  0  0  0
  6 19  1  0  0  0  0
  6 20  1  0  0  0  0
  7 10  1  0  0  0  0
  7 21  1  0  0  0  0
  7 22  1  0  0  0  0
  8  9  1  0  0  0  0
  9 11  1  0  0  0  0
  9 23  1  0  0  0  0
  9 24  1  0  0  0  0
 10 25  1  0  0  0  0
 10 26  1  0  0  0  0
 10 27  1  0  0  0  0
 11 12  1  0  0  0  0
 11 28  1  0  0  0  0
 11 29  1  0  0  0  0
 12 30  1  0  0  0  0
M  END
> <PUBCHEM_COMPOUND_CID>
6428959

> <PUBCHEM_CONFORMER_RMSD>
0.8

> <PUBCHEM_CONFORMER_DIVERSEORDER>
1
68
16
301
322
146
51
2
232
193
112
285
26
229
58
349
56
49
338
31
40
176
101
335
336
255
168
3
186
89
279
5
187
253
37
33
278
81
310
6
263
214
10
270
289
15
348
173
114
178
32
83
12
314
236
284
109
213
82
46
237
243
53
67
9
217
331
321
269
129
297
22
293
42
189
102
148
11
79
307
221
328
154
171
130
145
272
254
159
286
128
230
287
218
222
283
271
346
43
18
296
21
277
185
291
62
228
39
13
138
350
7
161
44
85
20
309
103
281
119
75
242
70
345
110
137
52
190
141
191
275
108
257
225
334
268
23
84
77
175
162
267
126
136
220
98
303
273
107
140
332
215
55
115
177
183
122
259
133
139
155
344
86
201
319
333
111
250
90
142
308
118
208
144
324
311
174
184
116
88
192
135
251
245
4
265
123
180
156
170
234
325
196
152
327
157
258
235
60
304
280
282
14
276
30
266
74
233
205
87
27
158
238
249
160
330
256
347
150
65
188
35
317
239
47
342
69
54
97
147
316
292
246
226
169
48
343
240
252
25
78
100
66
298
71
38
211
153
206
247
260
121
61
248
19
164
106
94
337
274
241
302
124
340
8
149
36
261
290
80
131
305
50
262
24
323
151
117
96
59
63
120
29
209
198
288
299
203
179
204
167
76
329
64
231
194
212
163
132
28
313
134
300
125
312
202
93
34
318
17
223
199
200
295
104
95
91
105
182
72
197
315
244
264
57
181
341
216
73
227
127
143
210
326
320
339
166
41
45
99
219
113
224
165
172
195
92
207
306
294

> <PUBCHEM_MMFF94_PARTIAL_CHARGES>
8
1 -0.57
11 0.06
12 0.45
2 -0.57
30 0.06
6 0.06
8 0.45
9 0.06

> <PUBCHEM_EFFECTIVE_ROTOR_COUNT>
8

> <PUBCHEM_PHARMACOPHORE_FEATURES>
4
1 1 acceptor
1 10 hydrophobe
1 2 acceptor
5 3 4 5 6 7 hydrophobe

> <PUBCHEM_HEAVY_ATOM_COUNT>
12

> <PUBCHEM_ATOM_DEF_STEREO_COUNT>
0

> <PUBCHEM_ATOM_UDEF_STEREO_COUNT>
0

> <PUBCHEM_BOND_DEF_STEREO_COUNT>
0

> <PUBCHEM_BOND_UDEF_STEREO_COUNT>
0

> <PUBCHEM_ISOTOPIC_ATOM_COUNT>
0

> <PUBCHEM_COMPONENT_COUNT>
1

> <PUBCHEM_CACTVS_TAUTO_COUNT>
6

> <PUBCHEM_CONFORMER_ID>
0062191F00000001

> <PUBCHEM_MMFF94_ENERGY>
2.4602

> <PUBCHEM_FEATURE_SELFOVERLAP>
20.298

> <PUBCHEM_SHAPE_FINGERPRINT>
11401426 45 18202563986157932815
117890 112 18342458136299850352
12091667 2 18413671326945539411
12815109 37 17632858633564635864
13533116 47 17774440482769062430
13740256 8 9150879586442978629
14123238 8 17603301561802099646
15048467 5 18335420175334485852
15242433 33 18335138700642631290
15242439 84 18060420235616255186
15501527 16 18409730664297173473
17834072 33 17988640852190092780
17834072 8 18131066035175682469
17834076 25 18410573993751941740
187816 3 16988563506937793075
200 152 10519989257319621799
20279233 1 17632589270517162494
20281389 69 18187362129686855452
20621476 66 18338522941625082057
20645477 56 18408321094421432052
20645477 70 17059786512027106206
20767249 13 11887954354177898692
20767249 213 18335421283093000900
23218964 4 18410855456292136912
23402539 116 18201715167481668509
23402655 69 18060417989221804277
366044 4 18410573994116354419
42788 4 18411136948179762852
8209 1 18412262839317309908

> <PUBCHEM_SHAPE_MULTIPOLES>
235.22
14.53
1.05
0.6
7.54
0.12
0
-2.62
0.41
-0.71
0
0.05
0
0.04

> <PUBCHEM_SHAPE_SELFOVERLAP>
428.048

> <PUBCHEM_SHAPE_VOLUME>
149.2

> <PUBCHEM_COORDINATE_TYPE>
2
5
10

$$$$
