6429308
  -OEChem-11232109043D

 22 21  0     1  0  0  0  0  0999 V2000
    1.5258    0.3433   -1.6757 S   0  0  0  0  0  0  0  0  0  0  0  0
   -1.6311   -1.2812   -0.0023 O   0  0  0  0  0  0  0  0  0  0  0  0
    1.1351    0.0500    0.0990 C   0  0  0  0  0  0  0  0  0  0  0  0
   -0.2501    0.6536    0.4565 C   0  0  0  0  0  0  0  0  0  0  0  0
   -1.4733    0.1038   -0.2973 C   0  0  2  0  0  0  0  0  0  0  0  0
    2.2177    0.7633    0.9269 C   0  0  0  0  0  0  0  0  0  0  0  0
    1.2210   -1.4583    0.3567 C   0  0  0  0  0  0  0  0  0  0  0  0
   -2.7451    0.8255    0.1364 C   0  0  0  0  0  0  0  0  0  0  0  0
   -0.4107    0.4956    1.5326 H   0  0  0  0  0  0  0  0  0  0  0  0
   -0.2137    1.7424    0.3116 H   0  0  0  0  0  0  0  0  0  0  0  0
   -1.3625    0.2089   -1.3797 H   0  0  0  0  0  0  0  0  0  0  0  0
    2.0505    0.6042    1.9989 H   0  0  0  0  0  0  0  0  0  0  0  0
    2.2139    1.8462    0.7550 H   0  0  0  0  0  0  0  0  0  0  0  0
    3.2227    0.3889    0.6980 H   0  0  0  0  0  0  0  0  0  0  0  0
    2.2532   -1.8196    0.2665 H   0  0  0  0  0  0  0  0  0  0  0  0
    0.6208   -2.0494   -0.3420 H   0  0  0  0  0  0  0  0  0  0  0  0
    0.8885   -1.6977    1.3734 H   0  0  0  0  0  0  0  0  0  0  0  0
   -2.9224    0.7049    1.2108 H   0  0  0  0  0  0  0  0  0  0  0  0
   -2.6928    1.8942   -0.0927 H   0  0  0  0  0  0  0  0  0  0  0  0
   -3.6162    0.4014   -0.3749 H   0  0  0  0  0  0  0  0  0  0  0  0
    0.6338   -0.5171   -2.1877 H   0  0  0  0  0  0  0  0  0  0  0  0
   -1.7541   -1.3724    0.9581 H   0  0  0  0  0  0  0  0  0  0  0  0
  1  3  1  0  0  0  0
  1 21  1  0  0  0  0
  2  5  1  0  0  0  0
  2 22  1  0  0  0  0
  3  4  1  0  0  0  0
  3  6  1  0  0  0  0
  3  7  1  0  0  0  0
  4  5  1  0  0  0  0
  4  9  1  0  0  0  0
  4 10  1  0  0  0  0
  5  8  1  0  0  0  0
  5 11  1  0  0  0  0
  6 12  1  0  0  0  0
  6 13  1  0  0  0  0
  6 14  1  0  0  0  0
  7 15  1  0  0  0  0
  7 16  1  0  0  0  0
  7 17  1  0  0  0  0
  8 18  1  0  0  0  0
  8 19  1  0  0  0  0
  8 20  1  0  0  0  0
M  END
> <PUBCHEM_COMPOUND_CID>
6429308

> <PUBCHEM_CONFORMER_RMSD>
0.4

> <PUBCHEM_CONFORMER_DIVERSEORDER>
1
7
2
8
5
4
3
6

> <PUBCHEM_MMFF94_PARTIAL_CHARGES>
6
1 -0.41
2 -0.68
21 0.18
22 0.4
3 0.23
5 0.28

> <PUBCHEM_EFFECTIVE_ROTOR_COUNT>
2

> <PUBCHEM_PHARMACOPHORE_FEATURES>
3
1 2 acceptor
1 2 donor
3 3 6 7 hydrophobe

> <PUBCHEM_HEAVY_ATOM_COUNT>
8

> <PUBCHEM_ATOM_DEF_STEREO_COUNT>
0

> <PUBCHEM_ATOM_UDEF_STEREO_COUNT>
1

> <PUBCHEM_BOND_DEF_STEREO_COUNT>
0

> <PUBCHEM_BOND_UDEF_STEREO_COUNT>
0

> <PUBCHEM_ISOTOPIC_ATOM_COUNT>
0

> <PUBCHEM_COMPONENT_COUNT>
1

> <PUBCHEM_CACTVS_TAUTO_COUNT>
1

> <PUBCHEM_CONFORMER_ID>
00621A7C00000001

> <PUBCHEM_MMFF94_ENERGY>
19.1781

> <PUBCHEM_FEATURE_SELFOVERLAP>
15.223

> <PUBCHEM_SHAPE_FINGERPRINT>
12932741 1 17846508044771443589
12932764 1 18271530810393020181
14390081 3 18131344224291499801
20653085 51 17099786886431306180
21040471 1 18408888433931656579
23211744 41 17701528743698655064
23235687 12 17240199949846741047
23552423 10 18113902632701259483
24536 1 17530970189163146715
29004967 10 15936679385571389856
3248919 1 17748830704915280393
5084963 1 17897171221450035017

> <PUBCHEM_SHAPE_MULTIPOLES>
162.62
3.41
1.27
1.2
1.86
0.5
-0.32
-0.62
0.27
-0.11
-0.05
-0.82
-0.35
-0.2

> <PUBCHEM_SHAPE_SELFOVERLAP>
284.242

> <PUBCHEM_SHAPE_VOLUME>
110

> <PUBCHEM_COORDINATE_TYPE>
2
5
10

$$$$
