6429268
  -OEChem-11232109063D

 20 20  0     0  0  0  0  0  0999 V2000
    1.2701   -0.9762   -0.0487 N   0  0  0  0  0  0  0  0  0  0  0  0
   -0.3164    1.3303    0.1216 N   0  0  0  0  0  0  0  0  0  0  0  0
   -0.0748   -1.0383    0.0163 C   0  0  0  0  0  0  0  0  0  0  0  0
   -0.8540    0.0946    0.1000 C   0  0  0  0  0  0  0  0  0  0  0  0
    1.8076    0.2594   -0.0274 C   0  0  0  0  0  0  0  0  0  0  0  0
   -0.6731   -2.4044   -0.0086 C   0  0  0  0  0  0  0  0  0  0  0  0
    1.0285    1.3924    0.0564 C   0  0  0  0  0  0  0  0  0  0  0  0
    3.2908    0.3672   -0.0992 C   0  0  0  0  0  0  0  0  0  0  0  0
   -2.3047    0.0361    0.1705 C   0  0  0  0  0  0  0  0  0  0  0  0
   -3.1739    0.9390   -0.2809 C   0  0  0  0  0  0  0  0  0  0  0  0
   -1.1707   -2.6273    0.9404 H   0  0  0  0  0  0  0  0  0  0  0  0
   -1.3877   -2.5050   -0.8318 H   0  0  0  0  0  0  0  0  0  0  0  0
    0.1026   -3.1637   -0.1575 H   0  0  0  0  0  0  0  0  0  0  0  0
    1.4529    2.3893    0.0738 H   0  0  0  0  0  0  0  0  0  0  0  0
    3.5892    0.9348   -0.9863 H   0  0  0  0  0  0  0  0  0  0  0  0
    3.6802    0.8677    0.7929 H   0  0  0  0  0  0  0  0  0  0  0  0
    3.7541   -0.6230   -0.1602 H   0  0  0  0  0  0  0  0  0  0  0  0
   -2.7285   -0.8595    0.6188 H   0  0  0  0  0  0  0  0  0  0  0  0
   -4.2412    0.7713   -0.1797 H   0  0  0  0  0  0  0  0  0  0  0  0
   -2.8545    1.8573   -0.7618 H   0  0  0  0  0  0  0  0  0  0  0  0
  1  3  2  0  0  0  0
  1  5  1  0  0  0  0
  2  4  2  0  0  0  0
  2  7  1  0  0  0  0
  3  4  1  0  0  0  0
  3  6  1  0  0  0  0
  4  9  1  0  0  0  0
  5  7  2  0  0  0  0
  5  8  1  0  0  0  0
  6 11  1  0  0  0  0
  6 12  1  0  0  0  0
  6 13  1  0  0  0  0
  7 14  1  0  0  0  0
  8 15  1  0  0  0  0
  8 16  1  0  0  0  0
  8 17  1  0  0  0  0
  9 10  2  0  0  0  0
  9 18  1  0  0  0  0
 10 19  1  0  0  0  0
 10 20  1  0  0  0  0
M  END
> <PUBCHEM_COMPOUND_CID>
6429268

> <PUBCHEM_CONFORMER_RMSD>
0.4

> <PUBCHEM_CONFORMER_DIVERSEORDER>
1
2

> <PUBCHEM_MMFF94_PARTIAL_CHARGES>
14
1 -0.62
10 -0.3
14 0.15
18 0.15
19 0.15
2 -0.62
20 0.15
3 0.17
4 0.34
5 0.17
6 0.14
7 0.16
8 0.14
9 -0.18

> <PUBCHEM_EFFECTIVE_ROTOR_COUNT>
1

> <PUBCHEM_PHARMACOPHORE_FEATURES>
4
1 1 acceptor
1 10 hydrophobe
1 2 acceptor
6 1 2 3 4 5 7 rings

> <PUBCHEM_HEAVY_ATOM_COUNT>
10

> <PUBCHEM_ATOM_DEF_STEREO_COUNT>
0

> <PUBCHEM_ATOM_UDEF_STEREO_COUNT>
0

> <PUBCHEM_BOND_DEF_STEREO_COUNT>
0

> <PUBCHEM_BOND_UDEF_STEREO_COUNT>
0

> <PUBCHEM_ISOTOPIC_ATOM_COUNT>
0

> <PUBCHEM_COMPONENT_COUNT>
1

> <PUBCHEM_CACTVS_TAUTO_COUNT>
1

> <PUBCHEM_CONFORMER_ID>
00621A5400000001

> <PUBCHEM_MMFF94_ENERGY>
26.6459

> <PUBCHEM_FEATURE_SELFOVERLAP>
20.301

> <PUBCHEM_SHAPE_FINGERPRINT>
13380535 76 18413105061156377702
14325111 11 18410293609781476197
15310529 11 16805313388556797928
16945 1 18411985775414482496
193761 8 17834676376122716409
20645476 183 17750254619691822350
21040471 1 18410855503088397297
23235685 24 18411695482801393292
23402655 69 18268133272640994077
23552423 10 17900822957369301476
23559900 14 18343309189292883188
241688 4 16608569762758335003
2748010 2 18410583855107961023
5084963 1 18201719595693131793
528862 383 18114734915663900378
528886 8 18411131420593802313

> <PUBCHEM_SHAPE_MULTIPOLES>
195.83
4.07
1.86
0.62
0.21
1.04
0
-1.47
0.3
-0.45
0.01
-0.04
-0.01
0.08

> <PUBCHEM_SHAPE_SELFOVERLAP>
400.91

> <PUBCHEM_SHAPE_VOLUME>
113.2

> <PUBCHEM_COORDINATE_TYPE>
2
5
10

$$$$
