6429039
  -OEChem-11232108443D

 43 42  0     0  0  0  0  0  0999 V2000
    1.7060    1.2561    0.2231 O   0  0  0  0  0  0  0  0  0  0  0  0
    2.4846   -0.1176    1.9042 O   0  0  0  0  0  0  0  0  0  0  0  0
    3.4589   -1.1474   -1.0700 C   0  0  0  0  0  0  0  0  0  0  0  0
    3.7081    0.0867   -0.1891 C   0  0  0  0  0  0  0  0  0  0  0  0
   -2.3978    1.2832    0.2179 C   0  0  0  0  0  0  0  0  0  0  0  0
   -2.3235    0.1571   -0.8216 C   0  0  0  0  0  0  0  0  0  0  0  0
    3.2513   -2.4062   -0.2240 C   0  0  0  0  0  0  0  0  0  0  0  0
    2.2374   -0.9166   -1.9617 C   0  0  0  0  0  0  0  0  0  0  0  0
   -1.5210    2.4740   -0.1090 C   0  0  0  0  0  0  0  0  0  0  0  0
    2.5804    0.3617    0.7828 C   0  0  0  0  0  0  0  0  0  0  0  0
   -0.2362    2.6118    0.2725 C   0  0  0  0  0  0  0  0  0  0  0  0
    0.6059    1.6405    1.0368 C   0  0  0  0  0  0  0  0  0  0  0  0
   -3.1926   -1.0170   -0.4648 C   0  0  0  0  0  0  0  0  0  0  0  0
   -2.1962    3.5706   -0.8926 C   0  0  0  0  0  0  0  0  0  0  0  0
   -2.8396   -2.1494    0.1722 C   0  0  0  0  0  0  0  0  0  0  0  0
   -3.8608   -3.2245    0.4334 C   0  0  0  0  0  0  0  0  0  0  0  0
   -1.4648   -2.4630    0.6898 C   0  0  0  0  0  0  0  0  0  0  0  0
    4.3380   -1.2942   -1.7090 H   0  0  0  0  0  0  0  0  0  0  0  0
    3.8802    0.9779   -0.8049 H   0  0  0  0  0  0  0  0  0  0  0  0
    4.6226   -0.0468    0.4018 H   0  0  0  0  0  0  0  0  0  0  0  0
   -3.4379    1.6208    0.3213 H   0  0  0  0  0  0  0  0  0  0  0  0
   -2.1355    0.8890    1.2076 H   0  0  0  0  0  0  0  0  0  0  0  0
   -2.6466    0.5342   -1.8004 H   0  0  0  0  0  0  0  0  0  0  0  0
   -1.2837   -0.1595   -0.9609 H   0  0  0  0  0  0  0  0  0  0  0  0
    2.3282   -2.3637    0.3630 H   0  0  0  0  0  0  0  0  0  0  0  0
    3.1886   -3.2898   -0.8685 H   0  0  0  0  0  0  0  0  0  0  0  0
    4.0901   -2.5556    0.4638 H   0  0  0  0  0  0  0  0  0  0  0  0
    1.3074   -0.8641   -1.3864 H   0  0  0  0  0  0  0  0  0  0  0  0
    2.3401    0.0095   -2.5370 H   0  0  0  0  0  0  0  0  0  0  0  0
    2.1309   -1.7395   -2.6772 H   0  0  0  0  0  0  0  0  0  0  0  0
    0.2849    3.5263   -0.0088 H   0  0  0  0  0  0  0  0  0  0  0  0
    0.9763    2.1325    1.9435 H   0  0  0  0  0  0  0  0  0  0  0  0
    0.0463    0.7474    1.3289 H   0  0  0  0  0  0  0  0  0  0  0  0
   -4.2323   -0.9053   -0.7708 H   0  0  0  0  0  0  0  0  0  0  0  0
   -1.5211    4.4042   -1.1130 H   0  0  0  0  0  0  0  0  0  0  0  0
   -2.5638    3.1817   -1.8478 H   0  0  0  0  0  0  0  0  0  0  0  0
   -3.0455    3.9714   -0.3295 H   0  0  0  0  0  0  0  0  0  0  0  0
   -3.5523   -4.1623   -0.0402 H   0  0  0  0  0  0  0  0  0  0  0  0
   -4.8504   -2.9656    0.0422 H   0  0  0  0  0  0  0  0  0  0  0  0
   -3.9641   -3.3960    1.5099 H   0  0  0  0  0  0  0  0  0  0  0  0
   -1.5065   -2.6837    1.7617 H   0  0  0  0  0  0  0  0  0  0  0  0
   -0.7578   -1.6400    0.5591 H   0  0  0  0  0  0  0  0  0  0  0  0
   -1.0570   -3.3376    0.1725 H   0  0  0  0  0  0  0  0  0  0  0  0
  1 10  1  0  0  0  0
  1 12  1  0  0  0  0
  2 10  2  0  0  0  0
  3  4  1  0  0  0  0
  3  7  1  0  0  0  0
  3  8  1  0  0  0  0
  3 18  1  0  0  0  0
  4 10  1  0  0  0  0
  4 19  1  0  0  0  0
  4 20  1  0  0  0  0
  5  6  1  0  0  0  0
  5  9  1  0  0  0  0
  5 21  1  0  0  0  0
  5 22  1  0  0  0  0
  6 13  1  0  0  0  0
  6 23  1  0  0  0  0
  6 24  1  0  0  0  0
  7 25  1  0  0  0  0
  7 26  1  0  0  0  0
  7 27  1  0  0  0  0
  8 28  1  0  0  0  0
  8 29  1  0  0  0  0
  8 30  1  0  0  0  0
  9 11  2  0  0  0  0
  9 14  1  0  0  0  0
 11 12  1  0  0  0  0
 11 31  1  0  0  0  0
 12 32  1  0  0  0  0
 12 33  1  0  0  0  0
 13 15  2  0  0  0  0
 13 34  1  0  0  0  0
 14 35  1  0  0  0  0
 14 36  1  0  0  0  0
 14 37  1  0  0  0  0
 15 16  1  0  0  0  0
 15 17  1  0  0  0  0
 16 38  1  0  0  0  0
 16 39  1  0  0  0  0
 16 40  1  0  0  0  0
 17 41  1  0  0  0  0
 17 42  1  0  0  0  0
 17 43  1  0  0  0  0
M  END
> <PUBCHEM_COMPOUND_CID>
6429039

> <PUBCHEM_CONFORMER_RMSD>
1

> <PUBCHEM_CONFORMER_DIVERSEORDER>
1
109
189
17
134
64
20
168
76
129
45
182
190
146
37
175
176
86
73
69
138
163
96
147
198
101
174
207
199
173
99
60
89
85
72
206
62
114
98
188
36
11
78
61
103
125
194
82
139
205
124
105
180
40
7
66
117
142
88
150
107
165
90
15
187
91
172
6
158
118
32
51
195
39
122
115
81
177
52
71
47
26
171
3
18
167
185
159
130
178
23
92
67
8
44
102
193
84
74
200
48
108
151
94
116
119
113
56
100
53
57
75
25
120
35
148
145
162
63
184
29
79
156
38
131
22
58
43
155
104
19
126
170
135
41
50
9
106
111
54
127
16
152
33
136
203
65
70
144
4
14
13
197
112
183
80
121
209
83
10
204
186
166
110
95
42
202
181
27
157
160
87
208
161
24
149
154
59
192
153
46
34
123
5
141
93
31
143
132
68
55
164
30
97
21
12
179
28
2
196
77
133
169
137
128
49
140
191
201

> <PUBCHEM_MMFF94_PARTIAL_CHARGES>
16
1 -0.43
10 0.66
11 -0.29
12 0.42
13 -0.29
14 0.14
15 -0.28
16 0.14
17 0.14
2 -0.57
31 0.15
34 0.15
4 0.06
5 0.14
6 0.14
9 -0.28

> <PUBCHEM_EFFECTIVE_ROTOR_COUNT>
8

> <PUBCHEM_PHARMACOPHORE_FEATURES>
5
1 14 hydrophobe
1 2 acceptor
3 15 16 17 hydrophobe
3 3 7 8 hydrophobe
4 5 6 9 13 hydrophobe

> <PUBCHEM_HEAVY_ATOM_COUNT>
17

> <PUBCHEM_ATOM_DEF_STEREO_COUNT>
0

> <PUBCHEM_ATOM_UDEF_STEREO_COUNT>
0

> <PUBCHEM_BOND_DEF_STEREO_COUNT>
1

> <PUBCHEM_BOND_UDEF_STEREO_COUNT>
0

> <PUBCHEM_ISOTOPIC_ATOM_COUNT>
0

> <PUBCHEM_COMPONENT_COUNT>
1

> <PUBCHEM_CACTVS_TAUTO_COUNT>
1

> <PUBCHEM_CONFORMER_ID>
0062196F00000001

> <PUBCHEM_MMFF94_ENERGY>
14.6158

> <PUBCHEM_FEATURE_SELFOVERLAP>
25.376

> <PUBCHEM_SHAPE_FINGERPRINT>
117890 22 18200315549335477239
12363563 72 18264766739144137499
12553582 1 18124027103252206183
12841375 5 17688889943589845801
12990986 174 18410289186245178162
14251705 54 18268993253008533807
14251745 187 18343581811413555746
14863182 85 17688311604457756445
15415430 2 18411136905319676267
15422964 175 18195239151621555037
15635459 17 18121499330278214075
17859628 97 17545887027325922825
20397935 3 18335996362229238942
20645476 183 17898858937233509813
20645477 70 17616802671697356175
21354914 83 18412546487705682364
21665056 4 18050006593291075069
23559900 14 18055626227933918040
314173 41 18117837935436103507
7987 15 17917164822367331342
81228 2 18412255134621234857
8809292 202 18199752427620183572
9709674 26 18342728603106602316

> <PUBCHEM_SHAPE_MULTIPOLES>
338.11
7.2
4.34
1.33
2.39
0.7
-0.1
-5.1
-0.81
-4.7
-0.03
0.97
-0.06
1.48

> <PUBCHEM_SHAPE_SELFOVERLAP>
637.297

> <PUBCHEM_SHAPE_VOLUME>
210.7

> <PUBCHEM_COORDINATE_TYPE>
2
5
10

$$$$
