6429261
  -OEChem-11232109083D

 27 26  0     0  0  0  0  0  0999 V2000
   -4.7990    1.2010    0.5267 O   0  0  0  0  0  0  0  0  0  0  0  0
    3.1106   -0.0849   -0.2776 C   0  0  0  0  0  0  0  0  0  0  0  0
    1.7684   -0.4402    0.3734 C   0  0  0  0  0  0  0  0  0  0  0  0
    3.9308    0.9204    0.5315 C   0  0  0  0  0  0  0  0  0  0  0  0
    0.8998   -1.4310   -0.4097 C   0  0  0  0  0  0  0  0  0  0  0  0
    5.2477    1.2433   -0.1580 C   0  0  0  0  0  0  0  0  0  0  0  0
   -0.3727   -1.7874    0.3040 C   0  0  0  0  0  0  0  0  0  0  0  0
   -1.4983   -1.0623    0.2216 C   0  0  0  0  0  0  0  0  0  0  0  0
   -1.6059    0.1448   -0.5669 C   0  0  0  0  0  0  0  0  0  0  0  0
   -2.7352    0.8605   -0.6415 C   0  0  0  0  0  0  0  0  0  0  0  0
   -3.9462    0.4359    0.0964 C   0  0  0  0  0  0  0  0  0  0  0  0
    3.6935   -1.0040   -0.4150 H   0  0  0  0  0  0  0  0  0  0  0  0
    2.9219    0.3230   -1.2783 H   0  0  0  0  0  0  0  0  0  0  0  0
    1.2063    0.4885    0.5341 H   0  0  0  0  0  0  0  0  0  0  0  0
    1.9658   -0.8531    1.3717 H   0  0  0  0  0  0  0  0  0  0  0  0
    4.1343    0.5155    1.5295 H   0  0  0  0  0  0  0  0  0  0  0  0
    3.3573    1.8447    0.6662 H   0  0  0  0  0  0  0  0  0  0  0  0
    1.4675   -2.3594   -0.5550 H   0  0  0  0  0  0  0  0  0  0  0  0
    0.7097   -1.0587   -1.4225 H   0  0  0  0  0  0  0  0  0  0  0  0
    5.8195    1.9632    0.4358 H   0  0  0  0  0  0  0  0  0  0  0  0
    5.8579    0.3426   -0.2799 H   0  0  0  0  0  0  0  0  0  0  0  0
    5.0761    1.6792   -1.1474 H   0  0  0  0  0  0  0  0  0  0  0  0
   -0.3590   -2.6688    0.9397 H   0  0  0  0  0  0  0  0  0  0  0  0
   -2.3316   -1.4178    0.8155 H   0  0  0  0  0  0  0  0  0  0  0  0
   -0.7432    0.5227   -1.1043 H   0  0  0  0  0  0  0  0  0  0  0  0
   -2.7761    1.7981   -1.1833 H   0  0  0  0  0  0  0  0  0  0  0  0
   -4.0884   -0.6481    0.2196 H   0  0  0  0  0  0  0  0  0  0  0  0
  1 11  2  0  0  0  0
  2  3  1  0  0  0  0
  2  4  1  0  0  0  0
  2 12  1  0  0  0  0
  2 13  1  0  0  0  0
  3  5  1  0  0  0  0
  3 14  1  0  0  0  0
  3 15  1  0  0  0  0
  4  6  1  0  0  0  0
  4 16  1  0  0  0  0
  4 17  1  0  0  0  0
  5  7  1  0  0  0  0
  5 18  1  0  0  0  0
  5 19  1  0  0  0  0
  6 20  1  0  0  0  0
  6 21  1  0  0  0  0
  6 22  1  0  0  0  0
  7  8  2  0  0  0  0
  7 23  1  0  0  0  0
  8  9  1  0  0  0  0
  8 24  1  0  0  0  0
  9 10  2  0  0  0  0
  9 25  1  0  0  0  0
 10 11  1  0  0  0  0
 10 26  1  0  0  0  0
 11 27  1  0  0  0  0
M  END
> <PUBCHEM_COMPOUND_CID>
6429261

> <PUBCHEM_CONFORMER_RMSD>
0.6

> <PUBCHEM_CONFORMER_DIVERSEORDER>
6
77
22
80
52
78
74
3
62
37
50
65
7
71
26
67
56
84
9
38
85
28
42
34
36
66
82
33
14
58
83
75
27
44
47
68
13
79
39
73
60
63
19
86
76
46
1
64
70
54
72
21
53
30
29
55
49
40
69
51
41
35
81
32
48
57
17
61
16
43
23
31
20
59
2
24
4
18
45
8
15
11
12
25
5
10

> <PUBCHEM_MMFF94_PARTIAL_CHARGES>
12
1 -0.57
10 -0.14
11 0.5
23 0.15
24 0.15
25 0.15
26 0.15
27 0.06
5 0.14
7 -0.29
8 -0.15
9 -0.15

> <PUBCHEM_EFFECTIVE_ROTOR_COUNT>
6

> <PUBCHEM_PHARMACOPHORE_FEATURES>
3
1 1 acceptor
1 6 hydrophobe
5 2 3 4 5 7 hydrophobe

> <PUBCHEM_HEAVY_ATOM_COUNT>
11

> <PUBCHEM_ATOM_DEF_STEREO_COUNT>
0

> <PUBCHEM_ATOM_UDEF_STEREO_COUNT>
0

> <PUBCHEM_BOND_DEF_STEREO_COUNT>
2

> <PUBCHEM_BOND_UDEF_STEREO_COUNT>
0

> <PUBCHEM_ISOTOPIC_ATOM_COUNT>
0

> <PUBCHEM_COMPONENT_COUNT>
1

> <PUBCHEM_CACTVS_TAUTO_COUNT>
1

> <PUBCHEM_CONFORMER_ID>
00621A4D00000006

> <PUBCHEM_MMFF94_ENERGY>
12.0534

> <PUBCHEM_FEATURE_SELFOVERLAP>
15.223

> <PUBCHEM_SHAPE_FINGERPRINT>
100836 57 18410859871481834292
122479 349 18408887373185627682
14123260 362 18130517395768455144
14251752 14 13038641608508151507
14252887 29 13407065982339999176
15501527 16 18409730707637262592
15775835 57 18335135401711862242
170605 34 18337389340250832547
177051 138 9295292750854724930
17834072 32 18338237193076615212
17834072 8 18343310254317983750
20211469 26 8070027778743636151
20374829 77 10087644784055971373
20605781 2 18411419488609179701
20621476 66 18410859880388663256
20621476 91 17096383876811446561
20645477 56 18408324414826790694
20671657 53 10231750115140139891
20711983 171 18338512040955406158
20724930 31 8070031064994913382
20724930 69 18411417328335393480
20871999 31 16916773133038343951
21119208 17 15267341829470823392
212847 35 18413103953550395360
21354914 88 7997970176237092849
22713019 99 10447921767977997381
22926399 37 17988926665036306393
22959321 54 18342178825817709120
23402655 69 17703790310304881420
23403322 49 9871477512427575712
23500284 214 18408604777053582898
23557571 272 18129670840698159070
23590187 49 18409728482443023268
328317 168 18410287025691407767
449060 50 18261111859165963406
449060 62 18341048536411994266
58999712 45 18409448102909897847
76465 3 10953752122575008681

> <PUBCHEM_SHAPE_MULTIPOLES>
220.51
10.03
1.63
0.77
3.76
0.43
0.02
-7.25
-0.85
-0.08
-0.06
-0.07
-0.04
0.04

> <PUBCHEM_SHAPE_SELFOVERLAP>
405.698

> <PUBCHEM_SHAPE_VOLUME>
139

> <PUBCHEM_COORDINATE_TYPE>
2
5
10

$$$$
