6429333
  -OEChem-11232109263D

 21 21  0     0  0  0  0  0  0999 V2000
    1.5732   -2.3828    0.0028 O   0  0  0  0  0  0  0  0  0  0  0  0
   -0.0806    0.0026   -0.0026 C   0  0  0  0  0  0  0  0  0  0  0  0
    1.3737   -0.0009   -0.0040 C   0  0  0  0  0  0  0  0  0  0  0  0
   -0.7802    0.0041   -1.2093 C   0  0  0  0  0  0  0  0  0  0  0  0
   -0.7758    0.0028    1.2066 C   0  0  0  0  0  0  0  0  0  0  0  0
    2.1339    1.1184   -0.0050 C   0  0  0  0  0  0  0  0  0  0  0  0
   -2.1751    0.0053   -1.2067 C   0  0  0  0  0  0  0  0  0  0  0  0
   -2.1707    0.0040    1.2092 C   0  0  0  0  0  0  0  0  0  0  0  0
   -2.8704    0.0052    0.0025 C   0  0  0  0  0  0  0  0  0  0  0  0
    1.6409    2.5324    0.0063 C   0  0  0  0  0  0  0  0  0  0  0  0
    2.1310   -1.2912    0.0004 C   0  0  0  0  0  0  0  0  0  0  0  0
   -0.2530    0.0035   -2.1604 H   0  0  0  0  0  0  0  0  0  0  0  0
   -0.2452    0.0011    2.1558 H   0  0  0  0  0  0  0  0  0  0  0  0
    3.2189    1.0280   -0.0064 H   0  0  0  0  0  0  0  0  0  0  0  0
   -2.7200    0.0062   -2.1462 H   0  0  0  0  0  0  0  0  0  0  0  0
   -2.7120    0.0039    2.1507 H   0  0  0  0  0  0  0  0  0  0  0  0
   -3.9565    0.0061    0.0045 H   0  0  0  0  0  0  0  0  0  0  0  0
    2.0125    3.0579   -0.8790 H   0  0  0  0  0  0  0  0  0  0  0  0
    0.5511    2.6148    0.0126 H   0  0  0  0  0  0  0  0  0  0  0  0
    2.0221    3.0475    0.8936 H   0  0  0  0  0  0  0  0  0  0  0  0
    3.2311   -1.2103    0.0011 H   0  0  0  0  0  0  0  0  0  0  0  0
  1 11  2  0  0  0  0
  2  3  1  0  0  0  0
  2  4  2  0  0  0  0
  2  5  1  0  0  0  0
  3  6  2  0  0  0  0
  3 11  1  0  0  0  0
  4  7  1  0  0  0  0
  4 12  1  0  0  0  0
  5  8  2  0  0  0  0
  5 13  1  0  0  0  0
  6 10  1  0  0  0  0
  6 14  1  0  0  0  0
  7  9  2  0  0  0  0
  7 15  1  0  0  0  0
  8  9  1  0  0  0  0
  8 16  1  0  0  0  0
  9 17  1  0  0  0  0
 10 18  1  0  0  0  0
 10 19  1  0  0  0  0
 10 20  1  0  0  0  0
 11 21  1  0  0  0  0
M  END
> <PUBCHEM_COMPOUND_CID>
6429333

> <PUBCHEM_CONFORMER_RMSD>
0.4

> <PUBCHEM_CONFORMER_DIVERSEORDER>
1
6
4
3
2
5

> <PUBCHEM_MMFF94_PARTIAL_CHARGES>
18
1 -0.57
10 0.14
11 0.5
12 0.15
13 0.15
14 0.15
15 0.15
16 0.15
17 0.15
2 0.03
21 0.06
3 -0.01
4 -0.15
5 -0.15
6 -0.29
7 -0.15
8 -0.15
9 -0.15

> <PUBCHEM_EFFECTIVE_ROTOR_COUNT>
2

> <PUBCHEM_PHARMACOPHORE_FEATURES>
3
1 1 acceptor
1 10 hydrophobe
6 2 4 5 7 8 9 rings

> <PUBCHEM_HEAVY_ATOM_COUNT>
11

> <PUBCHEM_ATOM_DEF_STEREO_COUNT>
0

> <PUBCHEM_ATOM_UDEF_STEREO_COUNT>
0

> <PUBCHEM_BOND_DEF_STEREO_COUNT>
1

> <PUBCHEM_BOND_UDEF_STEREO_COUNT>
0

> <PUBCHEM_ISOTOPIC_ATOM_COUNT>
0

> <PUBCHEM_COMPONENT_COUNT>
1

> <PUBCHEM_CACTVS_TAUTO_COUNT>
1

> <PUBCHEM_CONFORMER_ID>
00621A9500000001

> <PUBCHEM_MMFF94_ENERGY>
27.0611

> <PUBCHEM_FEATURE_SELFOVERLAP>
15.223

> <PUBCHEM_SHAPE_FINGERPRINT>
10857977 72 16515967085538963877
12326174 3 18410011018456166434
12423570 1 15184105350500100952
13898156 1 17346881151979046189
15310529 11 18272087219079497281
15775835 57 17846225521712417249
16945 1 18410855468733966117
20201158 50 18041277656224533050
20379382 53 18336284373929908804
20645464 45 17458617947594788977
20645476 183 17917992815000346309
20711985 344 17399790502307057306
21061003 4 18264769861727747602
23211744 25 17268047469700723917
23211744 41 17677319657849620913
23552423 10 18201715176050484447
29004967 10 18335701598528749002
369184 2 18411702088809065825
5084963 1 17989486294848034777
81228 2 17471850304100359880

> <PUBCHEM_SHAPE_MULTIPOLES>
220.51
3.82
1.85
1.15
1.1
0.02
0
0.29
0
-2.18
0
0.79
0.03
0

> <PUBCHEM_SHAPE_SELFOVERLAP>
454.215

> <PUBCHEM_SHAPE_VOLUME>
126.8

> <PUBCHEM_COORDINATE_TYPE>
2
5
10

$$$$
