6429292
  -OEChem-11232109233D

 21 21  0     1  0  0  0  0  0999 V2000
   -1.6271    1.5416   -0.1827 O   0  0  0  0  0  0  0  0  0  0  0  0
   -2.7731   -1.7939    0.1216 O   0  0  0  0  0  0  0  0  0  0  0  0
   -0.6675    0.7450    0.5103 C   0  0  1  0  0  0  0  0  0  0  0  0
   -1.5943    0.1425   -0.4932 C   0  0  1  0  0  0  0  0  0  0  0  0
    0.7452    1.0550    0.1222 C   0  0  0  0  0  0  0  0  0  0  0  0
    1.6498   -0.1711    0.2468 C   0  0  0  0  0  0  0  0  0  0  0  0
    3.0797    0.1442   -0.1897 C   0  0  0  0  0  0  0  0  0  0  0  0
   -2.7848   -0.5797   -0.0323 C   0  0  0  0  0  0  0  0  0  0  0  0
    3.9722   -1.0836   -0.1031 C   0  0  0  0  0  0  0  0  0  0  0  0
   -0.8115    0.5596    1.5651 H   0  0  0  0  0  0  0  0  0  0  0  0
   -1.1990   -0.1452   -1.4595 H   0  0  0  0  0  0  0  0  0  0  0  0
    1.1185    1.8568    0.7704 H   0  0  0  0  0  0  0  0  0  0  0  0
    0.7863    1.4358   -0.9063 H   0  0  0  0  0  0  0  0  0  0  0  0
    1.6459   -0.5278    1.2842 H   0  0  0  0  0  0  0  0  0  0  0  0
    1.2487   -0.9871   -0.3672 H   0  0  0  0  0  0  0  0  0  0  0  0
    3.4949    0.9380    0.4420 H   0  0  0  0  0  0  0  0  0  0  0  0
    3.0817    0.5154   -1.2211 H   0  0  0  0  0  0  0  0  0  0  0  0
   -3.6902    0.0199    0.1589 H   0  0  0  0  0  0  0  0  0  0  0  0
    3.6021   -1.8844   -0.7513 H   0  0  0  0  0  0  0  0  0  0  0  0
    4.0172   -1.4642    0.9223 H   0  0  0  0  0  0  0  0  0  0  0  0
    4.9905   -0.8349   -0.4182 H   0  0  0  0  0  0  0  0  0  0  0  0
  1  3  1  0  0  0  0
  1  4  1  0  0  0  0
  2  8  2  0  0  0  0
  3  4  1  0  0  0  0
  3  5  1  0  0  0  0
  3 10  1  0  0  0  0
  4  8  1  0  0  0  0
  4 11  1  0  0  0  0
  5  6  1  0  0  0  0
  5 12  1  0  0  0  0
  5 13  1  0  0  0  0
  6  7  1  0  0  0  0
  6 14  1  0  0  0  0
  6 15  1  0  0  0  0
  7  9  1  0  0  0  0
  7 16  1  0  0  0  0
  7 17  1  0  0  0  0
  8 18  1  0  0  0  0
  9 19  1  0  0  0  0
  9 20  1  0  0  0  0
  9 21  1  0  0  0  0
M  END
> <PUBCHEM_COMPOUND_CID>
6429292

> <PUBCHEM_CONFORMER_RMSD>
0.6

> <PUBCHEM_CONFORMER_DIVERSEORDER>
1
21
26
24
23
7
10
27
12
8
6
28
4
3
9
18
29
16
17
25
2
20
19
14
11
5
22
15
13

> <PUBCHEM_MMFF94_PARTIAL_CHARGES>
9
1 -0.3
10 0.1
11 0.1
18 0.06
2 -0.57
3 -0.05
4 0.05
5 0.09
8 0.51

> <PUBCHEM_EFFECTIVE_ROTOR_COUNT>
4.6

> <PUBCHEM_PHARMACOPHORE_FEATURES>
3
1 1 acceptor
1 2 acceptor
1 9 hydrophobe

> <PUBCHEM_HEAVY_ATOM_COUNT>
9

> <PUBCHEM_ATOM_DEF_STEREO_COUNT>
2

> <PUBCHEM_ATOM_UDEF_STEREO_COUNT>
0

> <PUBCHEM_BOND_DEF_STEREO_COUNT>
0

> <PUBCHEM_BOND_UDEF_STEREO_COUNT>
0

> <PUBCHEM_ISOTOPIC_ATOM_COUNT>
0

> <PUBCHEM_COMPONENT_COUNT>
1

> <PUBCHEM_CACTVS_TAUTO_COUNT>
2

> <PUBCHEM_CONFORMER_ID>
00621A6C00000001

> <PUBCHEM_MMFF94_ENERGY>
3.4486

> <PUBCHEM_FEATURE_SELFOVERLAP>
15.223

> <PUBCHEM_SHAPE_FINGERPRINT>
12897270 3 18186514419042970708
12932764 1 17604425202672520472
14128692 85 18335423516449699076
14251710 61 18271252642573153022
14325111 11 18410855434949247172
14390081 3 8502379935698484817
177051 138 18413670197569756646
18342897 69 18411134719107599690
20201158 50 18413670209948470727
20281407 28 18342458178974982923
21061003 4 17132113541689127488
21293036 1 14273456998088203113
22485316 2 18343016722318390654
23552423 10 18187643656297826773
528716 315 18260271836735682126

> <PUBCHEM_SHAPE_MULTIPOLES>
173.48
6.11
1.45
0.67
4.08
0.21
0
3.06
0.38
-0.76
-0.04
-0.01
-0.03
0.12

> <PUBCHEM_SHAPE_SELFOVERLAP>
325.311

> <PUBCHEM_SHAPE_VOLUME>
109.4

> <PUBCHEM_COORDINATE_TYPE>
2
5
10

$$$$
