6429214
  -OEChem-11232108583D

 38 38  0     1  0  0  0  0  0999 V2000
   -5.0974    1.8250   -0.4363 O   0  0  0  0  0  0  0  0  0  0  0  0
   -0.6714   -0.6605   -0.1374 C   0  0  1  0  0  0  0  0  0  0  0  0
   -1.7079   -0.7555   -1.2646 C   0  0  0  0  0  0  0  0  0  0  0  0
   -1.3523   -0.7617    1.2399 C   0  0  0  0  0  0  0  0  0  0  0  0
   -2.7595    0.3533   -1.1448 C   0  0  0  0  0  0  0  0  0  0  0  0
    0.3845   -1.7103   -0.2973 C   0  0  0  0  0  0  0  0  0  0  0  0
   -3.2372    0.5480    0.2617 C   0  0  0  0  0  0  0  0  0  0  0  0
   -2.6196    0.0399    1.3375 C   0  0  0  0  0  0  0  0  0  0  0  0
    1.8090   -1.2334   -0.4658 C   0  0  0  0  0  0  0  0  0  0  0  0
    2.3471   -0.4352    0.7291 C   0  0  0  0  0  0  0  0  0  0  0  0
    0.0824   -3.0174   -0.2561 C   0  0  0  0  0  0  0  0  0  0  0  0
   -4.4626    1.3202    0.4815 C   0  0  0  0  0  0  0  0  0  0  0  0
    3.7952   -0.0618    0.5650 C   0  0  0  0  0  0  0  0  0  0  0  0
    4.3118    1.0551    0.0186 C   0  0  0  0  0  0  0  0  0  0  0  0
    5.7757    1.3650   -0.1138 C   0  0  0  0  0  0  0  0  0  0  0  0
    3.4021    2.1293   -0.5172 C   0  0  0  0  0  0  0  0  0  0  0  0
   -0.2130    0.3350   -0.2157 H   0  0  0  0  0  0  0  0  0  0  0  0
   -2.2238   -1.7246   -1.2393 H   0  0  0  0  0  0  0  0  0  0  0  0
   -1.2219   -0.6843   -2.2459 H   0  0  0  0  0  0  0  0  0  0  0  0
   -0.6539   -0.4073    2.0087 H   0  0  0  0  0  0  0  0  0  0  0  0
   -1.6040   -1.7964    1.5013 H   0  0  0  0  0  0  0  0  0  0  0  0
   -3.5986    0.1063   -1.8060 H   0  0  0  0  0  0  0  0  0  0  0  0
   -2.3325    1.2980   -1.5041 H   0  0  0  0  0  0  0  0  0  0  0  0
   -3.0209    0.1893    2.3364 H   0  0  0  0  0  0  0  0  0  0  0  0
    1.8598   -0.6184   -1.3741 H   0  0  0  0  0  0  0  0  0  0  0  0
    2.4720   -2.0897   -0.6495 H   0  0  0  0  0  0  0  0  0  0  0  0
    2.2618   -1.0438    1.6393 H   0  0  0  0  0  0  0  0  0  0  0  0
    1.7393    0.4535    0.9264 H   0  0  0  0  0  0  0  0  0  0  0  0
    0.8542   -3.7737   -0.3569 H   0  0  0  0  0  0  0  0  0  0  0  0
   -0.9330   -3.3741   -0.1235 H   0  0  0  0  0  0  0  0  0  0  0  0
   -4.7917    1.4302    1.5285 H   0  0  0  0  0  0  0  0  0  0  0  0
    4.4971   -0.8119    0.9276 H   0  0  0  0  0  0  0  0  0  0  0  0
    6.0202    2.2892    0.4195 H   0  0  0  0  0  0  0  0  0  0  0  0
    6.3952    0.5641    0.3031 H   0  0  0  0  0  0  0  0  0  0  0  0
    6.0479    1.4846   -1.1673 H   0  0  0  0  0  0  0  0  0  0  0  0
    2.3495    1.8441   -0.5766 H   0  0  0  0  0  0  0  0  0  0  0  0
    3.7060    2.3996   -1.5348 H   0  0  0  0  0  0  0  0  0  0  0  0
    3.4735    3.0254    0.1082 H   0  0  0  0  0  0  0  0  0  0  0  0
  1 12  2  0  0  0  0
  2  3  1  0  0  0  0
  2  4  1  0  0  0  0
  2  6  1  0  0  0  0
  2 17  1  0  0  0  0
  3  5  1  0  0  0  0
  3 18  1  0  0  0  0
  3 19  1  0  0  0  0
  4  8  1  0  0  0  0
  4 20  1  0  0  0  0
  4 21  1  0  0  0  0
  5  7  1  0  0  0  0
  5 22  1  0  0  0  0
  5 23  1  0  0  0  0
  6  9  1  0  0  0  0
  6 11  2  0  0  0  0
  7  8  2  0  0  0  0
  7 12  1  0  0  0  0
  8 24  1  0  0  0  0
  9 10  1  0  0  0  0
  9 25  1  0  0  0  0
  9 26  1  0  0  0  0
 10 13  1  0  0  0  0
 10 27  1  0  0  0  0
 10 28  1  0  0  0  0
 11 29  1  0  0  0  0
 11 30  1  0  0  0  0
 12 31  1  0  0  0  0
 13 14  2  0  0  0  0
 13 32  1  0  0  0  0
 14 15  1  0  0  0  0
 14 16  1  0  0  0  0
 15 33  1  0  0  0  0
 15 34  1  0  0  0  0
 15 35  1  0  0  0  0
 16 36  1  0  0  0  0
 16 37  1  0  0  0  0
 16 38  1  0  0  0  0
M  END
> <PUBCHEM_COMPOUND_CID>
6429214

> <PUBCHEM_CONFORMER_RMSD>
0.8

> <PUBCHEM_CONFORMER_DIVERSEORDER>
1
38
101
15
112
52
83
97
104
76
5
64
6
30
13
105
49
110
115
53
46
44
62
29
91
111
8
42
56
18
117
26
70
40
27
113
36
47
82
32
102
28
9
31
75
84
41
61
59
95
19
90
85
78
20
77
50
22
45
86
81
4
93
80
107
96
21
106
58
10
24
94
66
39
67
14
88
11
48
69
92
25
89
34
79
57
72
65
54
35
33
71
12
116
73
108
43
87
3
2
60
98
63
23
100
17
99
7
103
51
109
16
114
68
55
37
74

> <PUBCHEM_MMFF94_PARTIAL_CHARGES>
20
1 -0.57
10 0.14
11 -0.3
12 0.5
13 -0.29
14 -0.28
15 0.14
16 0.14
2 0.14
24 0.15
29 0.15
30 0.15
31 0.06
32 0.15
4 0.14
5 0.14
6 -0.28
7 -0.12
8 -0.29
9 0.14

> <PUBCHEM_EFFECTIVE_ROTOR_COUNT>
5.8

> <PUBCHEM_PHARMACOPHORE_FEATURES>
5
1 1 acceptor
1 11 hydrophobe
3 14 15 16 hydrophobe
4 6 9 10 13 hydrophobe
6 2 3 4 5 7 8 rings

> <PUBCHEM_HEAVY_ATOM_COUNT>
16

> <PUBCHEM_ATOM_DEF_STEREO_COUNT>
0

> <PUBCHEM_ATOM_UDEF_STEREO_COUNT>
1

> <PUBCHEM_BOND_DEF_STEREO_COUNT>
0

> <PUBCHEM_BOND_UDEF_STEREO_COUNT>
0

> <PUBCHEM_ISOTOPIC_ATOM_COUNT>
0

> <PUBCHEM_COMPONENT_COUNT>
1

> <PUBCHEM_CACTVS_TAUTO_COUNT>
1

> <PUBCHEM_CONFORMER_ID>
00621A1E00000001

> <PUBCHEM_MMFF94_ENERGY>
16.5025

> <PUBCHEM_FEATURE_SELFOVERLAP>
25.373

> <PUBCHEM_SHAPE_FINGERPRINT>
10498660 4 17989205971102148256
11046707 91 10737274749886111294
122479 349 18334579083267288226
12363563 72 9151175372118740250
12596602 18 13551198787754908268
12633257 1 16226053326793606764
12788726 201 18053082202055553014
12892183 10 15792002334152819280
13583140 156 17240754129376821162
14123255 52 18412546526513329904
14123260 362 18060706108264976008
1420 369 8142090870661813720
14251764 75 18120107314261820284
15061688 2 18335702711125803771
15342168 16 18409731759329042573
15475509 8 13758361047136913153
17834072 32 18411139173152397640
1813 80 17339286615156816478
193927 3 10953742166434751424
19784866 240 9511461138789742689
200 152 10519992560508168592
20112054 13 18261114075406011302
204376 136 18411700980417833835
21475661 188 17896595090400822973
21499 59 18343300349142600207
21618674 25 18261115115310505347
22620623 9 16199289053637124487
22646028 28 8790892878107439456
22926399 37 18131633361653175993
23402655 69 17704073980146972000
23403322 49 10303821968606244080
23526113 38 11815598788168074463
23559900 14 17315091968939871015
270888 7 18411417310834381576
27216 239 18188494695350903379
351380 3 10737287943825542128
4028521 119 17704354385550316536
4259306 186 10807932660894584881
4325135 7 18342176700542178975
474 4 18412544275718507683
4921388 177 15195290883963044895
56616090 284 14261628435022441741
633830 44 18271243820151073574
76465 3 8935000373643530718
7970288 3 8646774395697579656
81539 233 18342175505897900211
83771 10 8790884086082713130

> <PUBCHEM_SHAPE_MULTIPOLES>
323.4
10.5
2.35
1.13
5.68
0.88
-0.06
-9.56
-0.11
0.27
0.41
-0.73
0.07
-0.24

> <PUBCHEM_SHAPE_SELFOVERLAP>
639.285

> <PUBCHEM_SHAPE_VOLUME>
191.9

> <PUBCHEM_COORDINATE_TYPE>
2
5
10

$$$$
