6429343
  -OEChem-11232108423D

 21 20  0     0  0  0  0  0  0999 V2000
   -1.2347   -0.8635   -0.9870 O   0  0  0  0  0  0  0  0  0  0  0  0
    2.2249    0.5626   -0.7651 C   0  0  0  0  0  0  0  0  0  0  0  0
   -0.0514   -0.2347    1.0305 C   0  0  0  0  0  0  0  0  0  0  0  0
    2.0285   -0.8261   -0.2336 C   0  0  0  0  0  0  0  0  0  0  0  0
    1.0128   -1.1812    0.5673 C   0  0  0  0  0  0  0  0  0  0  0  0
    3.0796    1.3996    0.1737 C   0  0  0  0  0  0  0  0  0  0  0  0
   -1.2256   -0.2271    0.0638 C   0  0  0  0  0  0  0  0  0  0  0  0
   -2.3721    0.6401    0.4589 C   0  0  0  0  0  0  0  0  0  0  0  0
   -3.4619    0.7302   -0.3084 C   0  0  0  0  0  0  0  0  0  0  0  0
    1.2708    1.0669   -0.9516 H   0  0  0  0  0  0  0  0  0  0  0  0
    2.7190    0.4922   -1.7416 H   0  0  0  0  0  0  0  0  0  0  0  0
    0.3214    0.7870    1.1479 H   0  0  0  0  0  0  0  0  0  0  0  0
   -0.4087   -0.5682    2.0117 H   0  0  0  0  0  0  0  0  0  0  0  0
    2.7646   -1.5762   -0.5101 H   0  0  0  0  0  0  0  0  0  0  0  0
    0.9478   -2.2123    0.9043 H   0  0  0  0  0  0  0  0  0  0  0  0
    4.0640    0.9432    0.3238 H   0  0  0  0  0  0  0  0  0  0  0  0
    3.2339    2.3980   -0.2483 H   0  0  0  0  0  0  0  0  0  0  0  0
    2.6085    1.5190    1.1546 H   0  0  0  0  0  0  0  0  0  0  0  0
   -2.2978    1.1942    1.3876 H   0  0  0  0  0  0  0  0  0  0  0  0
   -4.2876    1.3655   -0.0051 H   0  0  0  0  0  0  0  0  0  0  0  0
   -3.5656    0.1875   -1.2413 H   0  0  0  0  0  0  0  0  0  0  0  0
  1  7  2  0  0  0  0
  2  4  1  0  0  0  0
  2  6  1  0  0  0  0
  2 10  1  0  0  0  0
  2 11  1  0  0  0  0
  3  5  1  0  0  0  0
  3  7  1  0  0  0  0
  3 12  1  0  0  0  0
  3 13  1  0  0  0  0
  4  5  2  0  0  0  0
  4 14  1  0  0  0  0
  5 15  1  0  0  0  0
  6 16  1  0  0  0  0
  6 17  1  0  0  0  0
  6 18  1  0  0  0  0
  7  8  1  0  0  0  0
  8  9  2  0  0  0  0
  8 19  1  0  0  0  0
  9 20  1  0  0  0  0
  9 21  1  0  0  0  0
M  END
> <PUBCHEM_COMPOUND_CID>
6429343

> <PUBCHEM_CONFORMER_RMSD>
0.6

> <PUBCHEM_CONFORMER_DIVERSEORDER>
1
54
22
72
32
53
61
46
8
63
71
13
64
41
30
56
60
17
45
70
69
2
49
67
9
23
27
11
5
36
66
44
6
47
57
43
12
15
19
68
55
37
58
18
62
40
38
4
65
35
26
52
33
16
7
31
42
50
29
51
34
10
28
25
39
3
48
20
59
24
14
21

> <PUBCHEM_MMFF94_PARTIAL_CHARGES>
13
1 -0.57
14 0.15
15 0.15
19 0.15
2 0.14
20 0.15
21 0.15
3 0.2
4 -0.29
5 -0.29
7 0.49
8 -0.14
9 -0.3

> <PUBCHEM_EFFECTIVE_ROTOR_COUNT>
4

> <PUBCHEM_PHARMACOPHORE_FEATURES>
3
1 1 acceptor
1 6 hydrophobe
1 9 hydrophobe

> <PUBCHEM_HEAVY_ATOM_COUNT>
9

> <PUBCHEM_ATOM_DEF_STEREO_COUNT>
0

> <PUBCHEM_ATOM_UDEF_STEREO_COUNT>
0

> <PUBCHEM_BOND_DEF_STEREO_COUNT>
1

> <PUBCHEM_BOND_UDEF_STEREO_COUNT>
0

> <PUBCHEM_ISOTOPIC_ATOM_COUNT>
0

> <PUBCHEM_COMPONENT_COUNT>
1

> <PUBCHEM_CACTVS_TAUTO_COUNT>
3

> <PUBCHEM_CONFORMER_ID>
00621A9F00000001

> <PUBCHEM_MMFF94_ENERGY>
6.7958

> <PUBCHEM_FEATURE_SELFOVERLAP>
15.223

> <PUBCHEM_SHAPE_FINGERPRINT>
10149128 76 18120940765824245748
10857977 72 15140977135923627539
12897270 3 16845300483444403728
12932764 1 17531250496225458915
14390081 3 18333734606644476809
15310529 11 18343585152782047891
15775835 57 18411702110073217628
170605 34 18334014994883522922
20653085 51 18268162005470537196
20711983 171 17774165582996768473
20711985 344 14116701751473015146
21293036 1 17132113563111216105
230 275 17894351064292742020
23235685 24 17676212394122308876
23552423 10 17415855586843597263
305870 269 18113891659223062898
3248919 1 18130505232600414243

> <PUBCHEM_SHAPE_MULTIPOLES>
179.35
5.17
1.29
0.95
1.53
0.08
0
2.49
0.46
-0.73
-0.05
0.01
-0.08
-0.04

> <PUBCHEM_SHAPE_SELFOVERLAP>
332.54

> <PUBCHEM_SHAPE_VOLUME>
112

> <PUBCHEM_COORDINATE_TYPE>
2
5
10

$$$$
