6429290
  -OEChem-11232108443D

 30 30  0     1  0  0  0  0  0999 V2000
    3.5280   -1.3514   -0.2480 O   0  0  0  0  0  0  0  0  0  0  0  0
    4.1259    2.1208    0.0942 O   0  0  0  0  0  0  0  0  0  0  0  0
    2.4766   -0.7341    0.4931 C   0  0  1  0  0  0  0  0  0  0  0  0
    3.2568    0.0286   -0.5259 C   0  0  1  0  0  0  0  0  0  0  0  0
    1.1203   -1.2642    0.1437 C   0  0  0  0  0  0  0  0  0  0  0  0
    0.0334   -0.2045    0.3247 C   0  0  0  0  0  0  0  0  0  0  0  0
   -1.3428   -0.7420   -0.0729 C   0  0  0  0  0  0  0  0  0  0  0  0
   -2.4325    0.3097    0.1463 C   0  0  0  0  0  0  0  0  0  0  0  0
   -3.8422   -0.1989   -0.1685 C   0  0  0  0  0  0  0  0  0  0  0  0
    4.3296    0.9277   -0.0872 C   0  0  0  0  0  0  0  0  0  0  0  0
   -4.9378    0.8281    0.1205 C   0  0  0  0  0  0  0  0  0  0  0  0
   -6.3154    0.2802   -0.2200 C   0  0  0  0  0  0  0  0  0  0  0  0
    2.6256   -0.5455    1.5466 H   0  0  0  0  0  0  0  0  0  0  0  0
    2.7862    0.2641   -1.4724 H   0  0  0  0  0  0  0  0  0  0  0  0
    0.9058   -2.1271    0.7854 H   0  0  0  0  0  0  0  0  0  0  0  0
    1.1048   -1.6289   -0.8914 H   0  0  0  0  0  0  0  0  0  0  0  0
    0.0177    0.1266    1.3706 H   0  0  0  0  0  0  0  0  0  0  0  0
    0.2723    0.6783   -0.2812 H   0  0  0  0  0  0  0  0  0  0  0  0
   -1.5727   -1.6349    0.5210 H   0  0  0  0  0  0  0  0  0  0  0  0
   -1.3338   -1.0467   -1.1262 H   0  0  0  0  0  0  0  0  0  0  0  0
   -2.2199    1.1890   -0.4743 H   0  0  0  0  0  0  0  0  0  0  0  0
   -2.4027    0.6451    1.1906 H   0  0  0  0  0  0  0  0  0  0  0  0
   -3.8874   -0.4931   -1.2245 H   0  0  0  0  0  0  0  0  0  0  0  0
   -4.0357   -1.1044    0.4202 H   0  0  0  0  0  0  0  0  0  0  0  0
    5.3267    0.4809    0.0613 H   0  0  0  0  0  0  0  0  0  0  0  0
   -4.9120    1.1104    1.1793 H   0  0  0  0  0  0  0  0  0  0  0  0
   -4.7561    1.7379   -0.4632 H   0  0  0  0  0  0  0  0  0  0  0  0
   -6.3822    0.0179   -1.2806 H   0  0  0  0  0  0  0  0  0  0  0  0
   -6.5389   -0.6141    0.3705 H   0  0  0  0  0  0  0  0  0  0  0  0
   -7.0842    1.0293   -0.0062 H   0  0  0  0  0  0  0  0  0  0  0  0
  1  3  1  0  0  0  0
  1  4  1  0  0  0  0
  2 10  2  0  0  0  0
  3  4  1  0  0  0  0
  3  5  1  0  0  0  0
  3 13  1  0  0  0  0
  4 10  1  0  0  0  0
  4 14  1  0  0  0  0
  5  6  1  0  0  0  0
  5 15  1  0  0  0  0
  5 16  1  0  0  0  0
  6  7  1  0  0  0  0
  6 17  1  0  0  0  0
  6 18  1  0  0  0  0
  7  8  1  0  0  0  0
  7 19  1  0  0  0  0
  7 20  1  0  0  0  0
  8  9  1  0  0  0  0
  8 21  1  0  0  0  0
  8 22  1  0  0  0  0
  9 11  1  0  0  0  0
  9 23  1  0  0  0  0
  9 24  1  0  0  0  0
 10 25  1  0  0  0  0
 11 12  1  0  0  0  0
 11 26  1  0  0  0  0
 11 27  1  0  0  0  0
 12 28  1  0  0  0  0
 12 29  1  0  0  0  0
 12 30  1  0  0  0  0
M  END
> <PUBCHEM_COMPOUND_CID>
6429290

> <PUBCHEM_CONFORMER_RMSD>
0.8

> <PUBCHEM_CONFORMER_DIVERSEORDER>
1
22
13
73
70
18
71
58
35
68
2
60
11
56
28
26
23
4
65
48
61
62
5
52
40
53
9
16
54
36
12
34
3
8
42
27
32
33
17
37
21
31
24
20
74
39
67
30
78
75
15
66
10
41
38
6
69
19
77
47
45
59
14
57
7
63
72
46
43
29
64
44
50
55
49
25
51
76

> <PUBCHEM_MMFF94_PARTIAL_CHARGES>
9
1 -0.3
10 0.51
13 0.1
14 0.1
2 -0.57
25 0.06
3 -0.05
4 0.05
5 0.09

> <PUBCHEM_EFFECTIVE_ROTOR_COUNT>
7.6

> <PUBCHEM_PHARMACOPHORE_FEATURES>
5
1 1 acceptor
1 12 hydrophobe
1 2 acceptor
3 5 6 7 hydrophobe
3 8 9 11 hydrophobe

> <PUBCHEM_HEAVY_ATOM_COUNT>
12

> <PUBCHEM_ATOM_DEF_STEREO_COUNT>
2

> <PUBCHEM_ATOM_UDEF_STEREO_COUNT>
0

> <PUBCHEM_BOND_DEF_STEREO_COUNT>
0

> <PUBCHEM_BOND_UDEF_STEREO_COUNT>
0

> <PUBCHEM_ISOTOPIC_ATOM_COUNT>
0

> <PUBCHEM_COMPONENT_COUNT>
1

> <PUBCHEM_CACTVS_TAUTO_COUNT>
2

> <PUBCHEM_CONFORMER_ID>
00621A6A00000001

> <PUBCHEM_MMFF94_ENERGY>
3.1139

> <PUBCHEM_FEATURE_SELFOVERLAP>
25.384

> <PUBCHEM_SHAPE_FINGERPRINT>
10912923 1 18272368638480271651
11287383 113 18335423482627946587
11987891 38 10303805493264709973
12616999 72 16559037073338621566
13081056 2 18334012757316390101
13533116 47 17023457539068630611
13690532 89 9583518720148431899
13955234 65 18188769440198861922
14123238 8 18186522086292836615
14251718 22 18412543237090783007
14251732 16 18335986467342071827
14252887 29 10303812077665924206
14455015 7 11383831597690732501
15342168 16 18114749359865601532
16079462 125 17531234046991267637
177051 138 9583523113873692882
17834072 33 18272929440812673847
17834076 25 18273213084642458239
20605781 2 18408040736194337993
20645477 70 18272091535200448358
20871999 31 17702937175202575535
212847 35 18273210880891576136
21354914 88 10015866478998760237
21652331 79 18407758127594499437
22896161 15 18337110172647337011
22959321 54 18410859854091007760
23402539 116 11818996301532457715
23402655 69 18273214209412199934
23532345 1 18408888434074282954
270888 7 18119812662937154388
4047638 21 18259987067661525770
42 15 8430317943777628091
42788 4 18409167689006328623
449060 50 18334858303544358975
449060 62 18409167718817866132
465052 167 8718829812054654744
522135 26 18202282476890302386
5374978 207 17749383745930776520
59682541 52 17631472145671942788
94968 8 10952061052464708756

> <PUBCHEM_SHAPE_MULTIPOLES>
235.22
13.21
1.39
0.67
13.38
0.39
0
4.82
1.05
-1.89
-0.04
-0.06
-0.02
-0.03

> <PUBCHEM_SHAPE_SELFOVERLAP>
438.478

> <PUBCHEM_SHAPE_VOLUME>
148.3

> <PUBCHEM_COORDINATE_TYPE>
2
5
10

$$$$
