6429101
  -OEChem-11232108523D

 43 43  0     1  0  0  0  0  0999 V2000
    1.6331   -0.5143    0.1343 O   0  0  0  0  0  0  0  0  0  0  0  0
    0.3129    1.6630    1.3227 O   0  0  0  0  0  0  0  0  0  0  0  0
    1.2222    0.6354   -0.6237 C   0  0  1  0  0  0  0  0  0  0  0  0
   -0.0202    1.2423   -0.0016 C   0  0  1  0  0  0  0  0  0  0  0  0
    2.4127    1.5756   -0.6385 C   0  0  0  0  0  0  0  0  0  0  0  0
    3.0752   -0.5532    0.1830 C   0  0  1  0  0  0  0  0  0  0  0  0
    3.5641    0.5994   -0.6976 C   0  0  0  0  0  0  0  0  0  0  0  0
   -1.1440    0.1864    0.0623 C   0  0  0  0  0  0  0  0  0  0  0  0
   -0.4330    2.4874   -0.7882 C   0  0  0  0  0  0  0  0  0  0  0  0
    3.4901   -0.3771    1.6447 C   0  0  0  0  0  0  0  0  0  0  0  0
    3.5397   -1.8826   -0.3237 C   0  0  0  0  0  0  0  0  0  0  0  0
   -2.4295    0.6689    0.7461 C   0  0  0  0  0  0  0  0  0  0  0  0
   -3.4423   -0.4391    0.8362 C   0  0  0  0  0  0  0  0  0  0  0  0
    2.7185   -2.8714   -0.6929 C   0  0  0  0  0  0  0  0  0  0  0  0
   -4.4362   -0.7157   -0.0293 C   0  0  0  0  0  0  0  0  0  0  0  0
   -5.4195   -1.8423    0.1181 C   0  0  0  0  0  0  0  0  0  0  0  0
   -4.6437    0.1375   -1.2519 C   0  0  0  0  0  0  0  0  0  0  0  0
    1.0129    0.2862   -1.6436 H   0  0  0  0  0  0  0  0  0  0  0  0
    2.4928    2.1721    0.2768 H   0  0  0  0  0  0  0  0  0  0  0  0
    2.4063    2.2610   -1.4910 H   0  0  0  0  0  0  0  0  0  0  0  0
    3.7030    0.2736   -1.7370 H   0  0  0  0  0  0  0  0  0  0  0  0
    4.5101    1.0361   -0.3619 H   0  0  0  0  0  0  0  0  0  0  0  0
   -1.3771   -0.1589   -0.9537 H   0  0  0  0  0  0  0  0  0  0  0  0
   -0.7900   -0.6909    0.6205 H   0  0  0  0  0  0  0  0  0  0  0  0
   -1.2849    2.9906   -0.3191 H   0  0  0  0  0  0  0  0  0  0  0  0
    0.3605    3.2423   -0.8056 H   0  0  0  0  0  0  0  0  0  0  0  0
   -0.7021    2.2409   -1.8203 H   0  0  0  0  0  0  0  0  0  0  0  0
    3.0681   -1.1723    2.2711 H   0  0  0  0  0  0  0  0  0  0  0  0
    4.5792   -0.3880    1.7617 H   0  0  0  0  0  0  0  0  0  0  0  0
    3.1107    0.5656    2.0544 H   0  0  0  0  0  0  0  0  0  0  0  0
    4.6123   -2.0490   -0.3900 H   0  0  0  0  0  0  0  0  0  0  0  0
   -2.8505    1.5415    0.2399 H   0  0  0  0  0  0  0  0  0  0  0  0
   -2.2070    1.0016    1.7675 H   0  0  0  0  0  0  0  0  0  0  0  0
    0.5810    0.8755    1.8267 H   0  0  0  0  0  0  0  0  0  0  0  0
   -3.3296   -1.0907    1.7016 H   0  0  0  0  0  0  0  0  0  0  0  0
    3.1325   -3.8093   -1.0493 H   0  0  0  0  0  0  0  0  0  0  0  0
    1.6384   -2.7944   -0.6566 H   0  0  0  0  0  0  0  0  0  0  0  0
   -5.3428   -2.5304   -0.7298 H   0  0  0  0  0  0  0  0  0  0  0  0
   -5.2396   -2.4170    1.0327 H   0  0  0  0  0  0  0  0  0  0  0  0
   -6.4416   -1.4530    0.1630 H   0  0  0  0  0  0  0  0  0  0  0  0
   -3.8087    0.8002   -1.4895 H   0  0  0  0  0  0  0  0  0  0  0  0
   -5.5436    0.7498   -1.1327 H   0  0  0  0  0  0  0  0  0  0  0  0
   -4.7827   -0.5017   -2.1313 H   0  0  0  0  0  0  0  0  0  0  0  0
  1  3  1  0  0  0  0
  1  6  1  0  0  0  0
  2  4  1  0  0  0  0
  2 34  1  0  0  0  0
  3  4  1  0  0  0  0
  3  5  1  0  0  0  0
  3 18  1  0  0  0  0
  4  8  1  0  0  0  0
  4  9  1  0  0  0  0
  5  7  1  0  0  0  0
  5 19  1  0  0  0  0
  5 20  1  0  0  0  0
  6  7  1  0  0  0  0
  6 10  1  0  0  0  0
  6 11  1  0  0  0  0
  7 21  1  0  0  0  0
  7 22  1  0  0  0  0
  8 12  1  0  0  0  0
  8 23  1  0  0  0  0
  8 24  1  0  0  0  0
  9 25  1  0  0  0  0
  9 26  1  0  0  0  0
  9 27  1  0  0  0  0
 10 28  1  0  0  0  0
 10 29  1  0  0  0  0
 10 30  1  0  0  0  0
 11 14  2  0  0  0  0
 11 31  1  0  0  0  0
 12 13  1  0  0  0  0
 12 32  1  0  0  0  0
 12 33  1  0  0  0  0
 13 15  2  0  0  0  0
 13 35  1  0  0  0  0
 14 36  1  0  0  0  0
 14 37  1  0  0  0  0
 15 16  1  0  0  0  0
 15 17  1  0  0  0  0
 16 38  1  0  0  0  0
 16 39  1  0  0  0  0
 16 40  1  0  0  0  0
 17 41  1  0  0  0  0
 17 42  1  0  0  0  0
 17 43  1  0  0  0  0
M  END
> <PUBCHEM_COMPOUND_CID>
6429101

> <PUBCHEM_CONFORMER_RMSD>
0.8

> <PUBCHEM_CONFORMER_DIVERSEORDER>
1
217
50
213
196
133
98
120
71
23
230
169
113
116
232
170
75
176
194
97
110
185
201
125
243
218
37
147
241
181
117
15
174
159
228
122
87
239
39
214
242
210
145
216
154
180
134
55
149
204
184
108
227
43
238
240
193
26
118
127
12
229
54
231
197
132
203
38
100
202
49
188
179
206
123
94
191
6
224
9
237
164
86
150
70
44
192
68
101
219
198
212
211
115
220
107
109
175
178
57
233
112
74
79
7
142
76
13
80
92
158
182
124
32
34
99
63
234
187
77
3
244
85
8
152
223
135
18
141
28
81
139
20
24
129
72
93
225
119
173
84
88
56
89
42
209
200
103
186
36
153
82
60
183
111
21
160
106
104
17
46
91
143
189
95
69
136
65
64
137
128
114
121
25
19
45
126
222
59
130
195
61
190
33
102
35
67
221
10
165
78
58
5
27
105
151
31
96
131
140
11
235
208
41
207
155
48
205
73
83
16
4
177
148
163
62
40
166
66
199
14
52
157
226
30
236
172
161
215
146
47
2
167
138
29
51
90
162
168
144
156
22
171
53

> <PUBCHEM_MMFF94_PARTIAL_CHARGES>
17
1 -0.56
11 -0.29
12 0.14
13 -0.29
14 -0.3
15 -0.28
16 0.14
17 0.14
2 -0.68
3 0.28
31 0.15
34 0.4
35 0.15
36 0.15
37 0.15
4 0.28
6 0.42

> <PUBCHEM_EFFECTIVE_ROTOR_COUNT>
6

> <PUBCHEM_PHARMACOPHORE_FEATURES>
6
1 1 acceptor
1 14 hydrophobe
1 2 acceptor
1 2 donor
3 15 16 17 hydrophobe
5 1 3 5 6 7 rings

> <PUBCHEM_HEAVY_ATOM_COUNT>
17

> <PUBCHEM_ATOM_DEF_STEREO_COUNT>
0

> <PUBCHEM_ATOM_UDEF_STEREO_COUNT>
3

> <PUBCHEM_BOND_DEF_STEREO_COUNT>
0

> <PUBCHEM_BOND_UDEF_STEREO_COUNT>
0

> <PUBCHEM_ISOTOPIC_ATOM_COUNT>
0

> <PUBCHEM_COMPONENT_COUNT>
1

> <PUBCHEM_CACTVS_TAUTO_COUNT>
1

> <PUBCHEM_CONFORMER_ID>
006219AD00000001

> <PUBCHEM_MMFF94_ENERGY>
38.5495

> <PUBCHEM_FEATURE_SELFOVERLAP>
30.45

> <PUBCHEM_SHAPE_FINGERPRINT>
10618630 7 18338521841574747438
11045977 3 11671788182567461973
116883 192 18188770531104444637
11796584 16 18260541217543611779
122479 349 9294989263643192556
12596602 18 16702022019333089419
12616999 72 18334866051506982238
12670545 2 17749097868607533827
12824470 246 18200036131447485905
12892183 10 17704351048218225001
13083527 12 18040702680906047440
13533116 47 18273217525849879459
13544653 18 18272370849929343561
13583140 156 16916211166268533713
1420 369 18343587339242408279
14251717 144 18409731767972062171
14251740 57 17917722287669290487
14251764 30 15982591577302925038
14252887 29 18411140238098370642
14576447 43 18339930414685617703
14863182 85 18343308080553251286
15239154 128 8790884077777569711
15342816 4 18040152903010505586
15375462 189 17988924491635109341
15848700 24 18408041801377726558
1798214 20 18334575750309232907
18186145 218 16950576466698342057
18222031 100 17418373605957656509
193927 3 18338812138504383571
19752476 56 11674889904685315046
200 152 18413107264716992205
20281475 54 18341057345659047777
20645477 70 18261114101249765447
20671657 53 17821727204307156389
21250096 35 18343582936874088459
21501925 9 18410853256952532800
21864079 5 8214142932771334259
22224240 67 18058716031606604626
2255824 54 18195251250170199869
22620623 9 17532369769082102117
22646028 28 18413674604063744971
231179 274 8718557107632829155
23559900 14 18409166614816423544
25 1 9295286127640731532
251288 83 16988555827435885104
2838139 119 11459867237868271214
2871803 45 18260832544816622542
3004659 81 18114180834801984367
31174 14 17489294275118488520
3286 77 17703788072648253498
32948 21 16370996370063433239
33824 294 18410013277598330186
4463277 69 18270965639424601134
46194498 28 17531812497291554999
49207404 50 11959722802680759301
4990 188 17603581958984696625
5281201 14 17458063798430160829
59391676 29 18411422803859617694
7164475 11 18336270028808244820
76465 3 18041553655265329282
7808743 9 11526792311347763466
8988823 20 17631995512483797489
960060 61 17967257511314068687
9709674 26 18260839197647033307

> <PUBCHEM_SHAPE_MULTIPOLES>
338.11
9.94
2.43
1.17
11.45
0.6
0.24
6.1
-0.61
-1.25
-0.6
-0.23
-0.11
0.26

> <PUBCHEM_SHAPE_SELFOVERLAP>
669.159

> <PUBCHEM_SHAPE_VOLUME>
204.3

> <PUBCHEM_COORDINATE_TYPE>
2
5
10

$$$$
