6430759
  -OEChem-11232109193D

 33 32  0     0  0  0  0  0  0999 V2000
   -4.6473    2.2248    0.9399 O   0  0  0  0  0  0  0  0  0  0  0  0
    2.5287   -0.4054   -0.1581 C   0  0  0  0  0  0  0  0  0  0  0  0
    3.2618    0.8024    0.4336 C   0  0  0  0  0  0  0  0  0  0  0  0
    1.9891   -1.3616    0.9101 C   0  0  0  0  0  0  0  0  0  0  0  0
    3.8066    1.7131   -0.6672 C   0  0  0  0  0  0  0  0  0  0  0  0
    1.3309   -2.5788    0.3280 C   0  0  0  0  0  0  0  0  0  0  0  0
    4.5707    2.8925   -0.0868 C   0  0  0  0  0  0  0  0  0  0  0  0
   -0.9420   -1.5158    0.2226 C   0  0  0  0  0  0  0  0  0  0  0  0
    0.0268   -2.6474    0.0221 C   0  0  0  0  0  0  0  0  0  0  0  0
   -1.6983   -1.1460   -1.0610 C   0  0  0  0  0  0  0  0  0  0  0  0
   -2.7965   -0.1179   -0.9743 C   0  0  0  0  0  0  0  0  0  0  0  0
   -3.1598    0.5872    0.1041 C   0  0  0  0  0  0  0  0  0  0  0  0
   -4.2706    1.5529   -0.0128 C   0  0  0  0  0  0  0  0  0  0  0  0
    1.7007   -0.0506   -0.7848 H   0  0  0  0  0  0  0  0  0  0  0  0
    3.2123   -0.9520   -0.8207 H   0  0  0  0  0  0  0  0  0  0  0  0
    4.0874    0.4537    1.0656 H   0  0  0  0  0  0  0  0  0  0  0  0
    2.5774    1.3678    1.0773 H   0  0  0  0  0  0  0  0  0  0  0  0
    2.8272   -1.7098    1.5285 H   0  0  0  0  0  0  0  0  0  0  0  0
    1.3327   -0.8318    1.6084 H   0  0  0  0  0  0  0  0  0  0  0  0
    4.4732    1.1444   -1.3260 H   0  0  0  0  0  0  0  0  0  0  0  0
    2.9809    2.0861   -1.2843 H   0  0  0  0  0  0  0  0  0  0  0  0
    1.9599   -3.4444    0.1378 H   0  0  0  0  0  0  0  0  0  0  0  0
    4.9498    3.5312   -0.8907 H   0  0  0  0  0  0  0  0  0  0  0  0
    3.9248    3.5007    0.5546 H   0  0  0  0  0  0  0  0  0  0  0  0
    5.4243    2.5526    0.5083 H   0  0  0  0  0  0  0  0  0  0  0  0
   -1.6640   -1.8399    0.9831 H   0  0  0  0  0  0  0  0  0  0  0  0
   -0.4698   -0.6105    0.6122 H   0  0  0  0  0  0  0  0  0  0  0  0
   -0.3637   -3.5745   -0.3892 H   0  0  0  0  0  0  0  0  0  0  0  0
   -0.9741   -0.7946   -1.8077 H   0  0  0  0  0  0  0  0  0  0  0  0
   -2.1480   -2.0576   -1.4772 H   0  0  0  0  0  0  0  0  0  0  0  0
   -3.3265    0.0441   -1.9118 H   0  0  0  0  0  0  0  0  0  0  0  0
   -2.6790    0.4848    1.0686 H   0  0  0  0  0  0  0  0  0  0  0  0
   -4.7442    1.6372   -1.0052 H   0  0  0  0  0  0  0  0  0  0  0  0
  1 13  2  0  0  0  0
  2  3  1  0  0  0  0
  2  4  1  0  0  0  0
  2 14  1  0  0  0  0
  2 15  1  0  0  0  0
  3  5  1  0  0  0  0
  3 16  1  0  0  0  0
  3 17  1  0  0  0  0
  4  6  1  0  0  0  0
  4 18  1  0  0  0  0
  4 19  1  0  0  0  0
  5  7  1  0  0  0  0
  5 20  1  0  0  0  0
  5 21  1  0  0  0  0
  6  9  2  0  0  0  0
  6 22  1  0  0  0  0
  7 23  1  0  0  0  0
  7 24  1  0  0  0  0
  7 25  1  0  0  0  0
  8  9  1  0  0  0  0
  8 10  1  0  0  0  0
  8 26  1  0  0  0  0
  8 27  1  0  0  0  0
  9 28  1  0  0  0  0
 10 11  1  0  0  0  0
 10 29  1  0  0  0  0
 10 30  1  0  0  0  0
 11 12  2  0  0  0  0
 11 31  1  0  0  0  0
 12 13  1  0  0  0  0
 12 32  1  0  0  0  0
 13 33  1  0  0  0  0
M  END
> <PUBCHEM_COMPOUND_CID>
6430759

> <PUBCHEM_CONFORMER_RMSD>
0.8

> <PUBCHEM_CONFORMER_DIVERSEORDER>
1
150
208
115
20
33
186
29
160
226
136
58
57
210
56
151
223
23
116
64
50
166
142
127
219
87
70
13
182
158
47
81
82
39
181
131
156
36
225
8
214
194
133
149
84
173
9
43
99
230
137
34
19
183
25
80
167
128
196
79
168
217
222
69
12
45
153
228
188
35
68
11
215
124
172
77
88
205
191
224
42
10
130
190
61
52
155
212
95
14
204
46
17
134
146
40
59
107
89
123
227
199
129
189
179
30
6
126
175
106
193
2
171
143
213
162
16
174
96
163
195
83
21
74
105
216
75
49
211
135
144
101
31
100
202
37
165
154
5
139
178
109
62
209
85
22
54
117
220
41
15
71
4
44
221
201
86
200
180
51
145
60
169
72
97
198
197
138
32
187
93
192
112
176
92
229
110
132
73
118
91
121
125
119
185
148
66
114
76
63
147
102
26
103
3
104
177
7
184
94
111
170
206
140
203
164
120
18
27
122
90
161
231
28
141
218
207
53
98
157
159
152
108
38
78
55
65
24
48
113
67

> <PUBCHEM_MMFF94_PARTIAL_CHARGES>
14
1 -0.57
10 0.14
11 -0.29
12 -0.14
13 0.5
22 0.15
28 0.15
31 0.15
32 0.15
33 0.06
4 0.14
6 -0.29
8 0.14
9 -0.29

> <PUBCHEM_EFFECTIVE_ROTOR_COUNT>
8

> <PUBCHEM_PHARMACOPHORE_FEATURES>
4
1 1 acceptor
1 7 hydrophobe
4 8 9 10 11 hydrophobe
5 2 3 4 5 6 hydrophobe

> <PUBCHEM_HEAVY_ATOM_COUNT>
13

> <PUBCHEM_ATOM_DEF_STEREO_COUNT>
0

> <PUBCHEM_ATOM_UDEF_STEREO_COUNT>
0

> <PUBCHEM_BOND_DEF_STEREO_COUNT>
2

> <PUBCHEM_BOND_UDEF_STEREO_COUNT>
0

> <PUBCHEM_ISOTOPIC_ATOM_COUNT>
0

> <PUBCHEM_COMPONENT_COUNT>
1

> <PUBCHEM_CACTVS_TAUTO_COUNT>
1

> <PUBCHEM_CONFORMER_ID>
0062202700000001

> <PUBCHEM_MMFF94_ENERGY>
2.9746

> <PUBCHEM_FEATURE_SELFOVERLAP>
20.297

> <PUBCHEM_SHAPE_FINGERPRINT>
10042902 136 8069758437519496872
10382601 240 17967525753760154264
10681291 71 18335993025013340804
122479 349 18408323302066595506
12617007 42 17628363675396310454
14123250 116 18268702990560247885
14123255 52 18410013260144258352
14251764 75 18341063972688922249
14774955 27 18336822014253082165
15342168 16 18408884014769005373
1741750 31 18264484164919484666
17834072 32 18337111280147655612
1798214 55 18408322211376861500
19107657 9 18410567401109134646
20621476 13 17973988579660560389
20621476 66 18337113471082305404
20671657 1 18335134246408585222
22182937 141 18190463959489061770
23590187 138 18411418401829537973
23590187 32 18265052608035727332
27216 239 18043251446962842234
44154327 71 18270116803858493849
474 4 18336822005341309531
56616090 278 18193846950441058387
633830 44 18342174432071518359
8199 26 18410854386486668540
88748 71 10087634931760145437

> <PUBCHEM_SHAPE_MULTIPOLES>
261.66
9.53
3.55
0.95
1.04
0.01
0.06
11.9
-0.39
-1.43
-0.46
0.33
0.02
-1.41

> <PUBCHEM_SHAPE_SELFOVERLAP>
479.296

> <PUBCHEM_SHAPE_VOLUME>
165.3

> <PUBCHEM_COORDINATE_TYPE>
2
5
10

$$$$
