6430713
  -OEChem-11232109103D

 14 13  0     0  0  0  0  0  0999 V2000
   -1.5485    0.6664   -0.0043 S   0  0  0  0  0  0  0  0  0  0  0  0
    1.3449    1.2507    0.0018 O   0  0  0  0  0  0  0  0  0  0  0  0
   -0.2437   -0.5840    0.0037 C   0  0  0  0  0  0  0  0  0  0  0  0
    1.1377    0.0381    0.0013 C   0  0  0  0  0  0  0  0  0  0  0  0
    2.2909   -0.9339   -0.0032 C   0  0  0  0  0  0  0  0  0  0  0  0
   -2.9813   -0.4373    0.0007 C   0  0  0  0  0  0  0  0  0  0  0  0
   -0.3398   -1.2005    0.9023 H   0  0  0  0  0  0  0  0  0  0  0  0
   -0.3389   -1.2098   -0.8886 H   0  0  0  0  0  0  0  0  0  0  0  0
    3.2369   -0.3851   -0.0018 H   0  0  0  0  0  0  0  0  0  0  0  0
    2.2453   -1.5604    0.8909 H   0  0  0  0  0  0  0  0  0  0  0  0
    2.2439   -1.5539   -0.9019 H   0  0  0  0  0  0  0  0  0  0  0  0
   -2.9767   -1.0714   -0.8897 H   0  0  0  0  0  0  0  0  0  0  0  0
   -3.8965    0.1606   -0.0033 H   0  0  0  0  0  0  0  0  0  0  0  0
   -2.9781   -1.0616    0.8980 H   0  0  0  0  0  0  0  0  0  0  0  0
  1  3  1  0  0  0  0
  1  6  1  0  0  0  0
  2  4  2  0  0  0  0
  3  4  1  0  0  0  0
  3  7  1  0  0  0  0
  3  8  1  0  0  0  0
  4  5  1  0  0  0  0
  5  9  1  0  0  0  0
  5 10  1  0  0  0  0
  5 11  1  0  0  0  0
  6 12  1  0  0  0  0
  6 13  1  0  0  0  0
  6 14  1  0  0  0  0
M  END
> <PUBCHEM_COMPOUND_CID>
6430713

> <PUBCHEM_CONFORMER_RMSD>
0.4

> <PUBCHEM_CONFORMER_DIVERSEORDER>
1
12
11
9
10
6
2
4
8
3
5
7

> <PUBCHEM_MMFF94_PARTIAL_CHARGES>
6
1 -0.46
2 -0.57
3 0.29
4 0.45
5 0.06
6 0.23

> <PUBCHEM_EFFECTIVE_ROTOR_COUNT>
2

> <PUBCHEM_PHARMACOPHORE_FEATURES>
2
1 2 acceptor
1 6 hydrophobe

> <PUBCHEM_HEAVY_ATOM_COUNT>
6

> <PUBCHEM_ATOM_DEF_STEREO_COUNT>
0

> <PUBCHEM_ATOM_UDEF_STEREO_COUNT>
0

> <PUBCHEM_BOND_DEF_STEREO_COUNT>
0

> <PUBCHEM_BOND_UDEF_STEREO_COUNT>
0

> <PUBCHEM_ISOTOPIC_ATOM_COUNT>
0

> <PUBCHEM_COMPONENT_COUNT>
1

> <PUBCHEM_CACTVS_TAUTO_COUNT>
3

> <PUBCHEM_CONFORMER_ID>
00621FF900000001

> <PUBCHEM_MMFF94_ENERGY>
7.0676

> <PUBCHEM_FEATURE_SELFOVERLAP>
10.148

> <PUBCHEM_SHAPE_FINGERPRINT>
12932741 1 17385449851218336547
20096714 4 18411138064728880480
29004967 10 18270399386873372370
5460574 1 9295285040882078371

> <PUBCHEM_SHAPE_MULTIPOLES>
121.46
3.93
1.13
0.62
1.55
0.18
0
-0.89
0
-0.27
0
0.04
-0.01
0

> <PUBCHEM_SHAPE_SELFOVERLAP>
200.991

> <PUBCHEM_SHAPE_VOLUME>
84.8

> <PUBCHEM_COORDINATE_TYPE>
2
5
10

$$$$
