6430888
  -OEChem-11232109123D

 22 21  0     1  0  0  0  0  0999 V2000
   -0.6664   -0.6777   -1.7052 S   0  0  0  0  0  0  0  0  0  0  0  0
    2.1724   -1.4178    0.5558 O   0  0  0  0  0  0  0  0  0  0  0  0
    0.8022    0.5962    0.3518 C   0  0  1  0  0  0  0  0  0  0  0  0
   -0.4578   -0.2777    0.0746 C   0  0  1  0  0  0  0  0  0  0  0  0
   -1.7421    0.3739    0.6279 C   0  0  0  0  0  0  0  0  0  0  0  0
    2.1175   -0.1165   -0.0129 C   0  0  0  0  0  0  0  0  0  0  0  0
    0.7738    1.9820   -0.3040 C   0  0  0  0  0  0  0  0  0  0  0  0
   -2.9996   -0.4625    0.4118 C   0  0  0  0  0  0  0  0  0  0  0  0
    0.8265    0.7532    1.4398 H   0  0  0  0  0  0  0  0  0  0  0  0
   -0.3381   -1.2397    0.5869 H   0  0  0  0  0  0  0  0  0  0  0  0
   -1.6167    0.5377    1.7055 H   0  0  0  0  0  0  0  0  0  0  0  0
   -1.9119    1.3588    0.1789 H   0  0  0  0  0  0  0  0  0  0  0  0
    2.9776    0.4511    0.3595 H   0  0  0  0  0  0  0  0  0  0  0  0
    2.2400   -0.2144   -1.0960 H   0  0  0  0  0  0  0  0  0  0  0  0
    0.7455    1.9203   -1.3960 H   0  0  0  0  0  0  0  0  0  0  0  0
    1.6717    2.5486   -0.0321 H   0  0  0  0  0  0  0  0  0  0  0  0
   -0.0847    2.5708    0.0304 H   0  0  0  0  0  0  0  0  0  0  0  0
   -3.8320   -0.0270    0.9751 H   0  0  0  0  0  0  0  0  0  0  0  0
   -2.8577   -1.4883    0.7668 H   0  0  0  0  0  0  0  0  0  0  0  0
   -3.3056   -0.4914   -0.6377 H   0  0  0  0  0  0  0  0  0  0  0  0
    0.3848   -1.5040   -1.8049 H   0  0  0  0  0  0  0  0  0  0  0  0
    2.0832   -1.3192    1.5191 H   0  0  0  0  0  0  0  0  0  0  0  0
  1  4  1  0  0  0  0
  1 21  1  0  0  0  0
  2  6  1  0  0  0  0
  2 22  1  0  0  0  0
  3  4  1  0  0  0  0
  3  6  1  0  0  0  0
  3  7  1  0  0  0  0
  3  9  1  0  0  0  0
  4  5  1  0  0  0  0
  4 10  1  0  0  0  0
  5  8  1  0  0  0  0
  5 11  1  0  0  0  0
  5 12  1  0  0  0  0
  6 13  1  0  0  0  0
  6 14  1  0  0  0  0
  7 15  1  0  0  0  0
  7 16  1  0  0  0  0
  7 17  1  0  0  0  0
  8 18  1  0  0  0  0
  8 19  1  0  0  0  0
  8 20  1  0  0  0  0
M  END
> <PUBCHEM_COMPOUND_CID>
6430888

> <PUBCHEM_CONFORMER_RMSD>
0.6

> <PUBCHEM_CONFORMER_DIVERSEORDER>
21
34
22
27
10
18
32
41
6
35
7
40
20
37
8
33
4
5
29
13
23
42
39
26
31
2
28
38
19
25
24
12
14
30
17
11
15
9
16
36
3
1

> <PUBCHEM_MMFF94_PARTIAL_CHARGES>
6
1 -0.41
2 -0.68
21 0.18
22 0.4
4 0.23
6 0.28

> <PUBCHEM_EFFECTIVE_ROTOR_COUNT>
3

> <PUBCHEM_PHARMACOPHORE_FEATURES>
4
1 2 acceptor
1 2 donor
1 7 hydrophobe
1 8 hydrophobe

> <PUBCHEM_HEAVY_ATOM_COUNT>
8

> <PUBCHEM_ATOM_DEF_STEREO_COUNT>
0

> <PUBCHEM_ATOM_UDEF_STEREO_COUNT>
2

> <PUBCHEM_BOND_DEF_STEREO_COUNT>
0

> <PUBCHEM_BOND_UDEF_STEREO_COUNT>
0

> <PUBCHEM_ISOTOPIC_ATOM_COUNT>
0

> <PUBCHEM_COMPONENT_COUNT>
1

> <PUBCHEM_CACTVS_TAUTO_COUNT>
1

> <PUBCHEM_CONFORMER_ID>
006220A800000015

> <PUBCHEM_MMFF94_ENERGY>
13.1346

> <PUBCHEM_FEATURE_SELFOVERLAP>
20.297

> <PUBCHEM_SHAPE_FINGERPRINT>
18185500 45 17914882369298058236
20711978 78 18187917447424973325
21040471 1 16773528749370579557
23552423 10 18195806495073176143
23552449 11 18336555983614517515
24536 1 18120637291523404457
29004967 10 18259982673851836416
5084963 1 18273219711623969929
528862 383 18337110184598270016

> <PUBCHEM_SHAPE_MULTIPOLES>
162.62
3.38
1.47
1.16
1.4
0.38
0.48
-0.58
-1.06
-0.67
0.28
0.16
-0.33
-0.55

> <PUBCHEM_SHAPE_SELFOVERLAP>
279.375

> <PUBCHEM_SHAPE_VOLUME>
110.6

> <PUBCHEM_COORDINATE_TYPE>
2
5
10

$$$$
