6430188
  -OEChem-11232109483D

 41 40  0     0  0  0  0  0  0999 V2000
    6.0338    2.0552   -0.6876 O   0  0  0  0  0  0  0  0  0  0  0  0
    1.6114   -0.7858   -0.5171 C   0  0  0  0  0  0  0  0  0  0  0  0
    0.5256   -1.7497   -0.0284 C   0  0  0  0  0  0  0  0  0  0  0  0
    2.8471   -0.7519    0.3858 C   0  0  0  0  0  0  0  0  0  0  0  0
   -0.6989   -1.8005   -0.9456 C   0  0  0  0  0  0  0  0  0  0  0  0
    3.8811    0.2543   -0.1316 C   0  0  0  0  0  0  0  0  0  0  0  0
   -3.8320   -0.0899   -0.0509 C   0  0  0  0  0  0  0  0  0  0  0  0
   -4.0233    1.3506    0.4279 C   0  0  0  0  0  0  0  0  0  0  0  0
   -2.9017   -0.8666    0.8830 C   0  0  0  0  0  0  0  0  0  0  0  0
   -1.7588   -2.7045   -0.3841 C   0  0  0  0  0  0  0  0  0  0  0  0
   -4.9787    2.1182   -0.4858 C   0  0  0  0  0  0  0  0  0  0  0  0
    5.1103    0.3423    0.7691 C   0  0  0  0  0  0  0  0  0  0  0  0
   -2.7399   -2.2884    0.4303 C   0  0  0  0  0  0  0  0  0  0  0  0
   -5.1970    3.5404    0.0053 C   0  0  0  0  0  0  0  0  0  0  0  0
    6.1209    1.3764    0.3298 C   0  0  0  0  0  0  0  0  0  0  0  0
    1.9140   -1.0719   -1.5320 H   0  0  0  0  0  0  0  0  0  0  0  0
    1.1854    0.2229   -0.5861 H   0  0  0  0  0  0  0  0  0  0  0  0
    0.9549   -2.7564    0.0581 H   0  0  0  0  0  0  0  0  0  0  0  0
    0.2246   -1.4530    0.9842 H   0  0  0  0  0  0  0  0  0  0  0  0
    2.5477   -0.4794    1.4049 H   0  0  0  0  0  0  0  0  0  0  0  0
    3.2963   -1.7508    0.4350 H   0  0  0  0  0  0  0  0  0  0  0  0
   -1.0819   -0.7896   -1.1220 H   0  0  0  0  0  0  0  0  0  0  0  0
   -0.4062   -2.1813   -1.9318 H   0  0  0  0  0  0  0  0  0  0  0  0
    4.1916   -0.0248   -1.1463 H   0  0  0  0  0  0  0  0  0  0  0  0
    3.4180    1.2461   -0.2100 H   0  0  0  0  0  0  0  0  0  0  0  0
   -3.4273   -0.0833   -1.0704 H   0  0  0  0  0  0  0  0  0  0  0  0
   -4.8076   -0.5907   -0.0989 H   0  0  0  0  0  0  0  0  0  0  0  0
   -4.4186    1.3472    1.4511 H   0  0  0  0  0  0  0  0  0  0  0  0
   -3.0528    1.8607    0.4578 H   0  0  0  0  0  0  0  0  0  0  0  0
   -3.3203   -0.8792    1.8971 H   0  0  0  0  0  0  0  0  0  0  0  0
   -1.9379   -0.3536    0.9697 H   0  0  0  0  0  0  0  0  0  0  0  0
   -1.7116   -3.7563   -0.6533 H   0  0  0  0  0  0  0  0  0  0  0  0
   -4.5767    2.1460   -1.5053 H   0  0  0  0  0  0  0  0  0  0  0  0
   -5.9452    1.6029   -0.5319 H   0  0  0  0  0  0  0  0  0  0  0  0
    5.6236   -0.6247    0.8059 H   0  0  0  0  0  0  0  0  0  0  0  0
    4.8083    0.6026    1.7897 H   0  0  0  0  0  0  0  0  0  0  0  0
   -3.4711   -3.0112    0.7819 H   0  0  0  0  0  0  0  0  0  0  0  0
   -4.2533    4.0944    0.0345 H   0  0  0  0  0  0  0  0  0  0  0  0
   -5.8820    4.0713   -0.6633 H   0  0  0  0  0  0  0  0  0  0  0  0
   -5.6307    3.5464    1.0103 H   0  0  0  0  0  0  0  0  0  0  0  0
    6.9917    1.4860    0.9991 H   0  0  0  0  0  0  0  0  0  0  0  0
  1 15  2  0  0  0  0
  2  3  1  0  0  0  0
  2  4  1  0  0  0  0
  2 16  1  0  0  0  0
  2 17  1  0  0  0  0
  3  5  1  0  0  0  0
  3 18  1  0  0  0  0
  3 19  1  0  0  0  0
  4  6  1  0  0  0  0
  4 20  1  0  0  0  0
  4 21  1  0  0  0  0
  5 10  1  0  0  0  0
  5 22  1  0  0  0  0
  5 23  1  0  0  0  0
  6 12  1  0  0  0  0
  6 24  1  0  0  0  0
  6 25  1  0  0  0  0
  7  8  1  0  0  0  0
  7  9  1  0  0  0  0
  7 26  1  0  0  0  0
  7 27  1  0  0  0  0
  8 11  1  0  0  0  0
  8 28  1  0  0  0  0
  8 29  1  0  0  0  0
  9 13  1  0  0  0  0
  9 30  1  0  0  0  0
  9 31  1  0  0  0  0
 10 13  2  0  0  0  0
 10 32  1  0  0  0  0
 11 14  1  0  0  0  0
 11 33  1  0  0  0  0
 11 34  1  0  0  0  0
 12 15  1  0  0  0  0
 12 35  1  0  0  0  0
 12 36  1  0  0  0  0
 13 37  1  0  0  0  0
 14 38  1  0  0  0  0
 14 39  1  0  0  0  0
 14 40  1  0  0  0  0
 15 41  1  0  0  0  0
M  END
> <PUBCHEM_COMPOUND_CID>
6430188

> <PUBCHEM_CONFORMER_RMSD>
1.2

> <PUBCHEM_CONFORMER_DIVERSEORDER>
1
17
9
13
37
5
34
19
27
18
30
2
44
41
48
20
52
7
4
33
35
31
28
15
6
3
26
45
11
36
50
53
32
14
21
42
24
25
39
22
29
51
40
8
38
49
46
10
12
16
43
23
47

> <PUBCHEM_MMFF94_PARTIAL_CHARGES>
10
1 -0.57
10 -0.29
12 0.06
13 -0.29
15 0.45
32 0.15
37 0.15
41 0.06
5 0.14
9 0.14

> <PUBCHEM_EFFECTIVE_ROTOR_COUNT>
11

> <PUBCHEM_PHARMACOPHORE_FEATURES>
3
1 1 acceptor
1 14 hydrophobe
5 7 8 9 11 13 hydrophobe

> <PUBCHEM_HEAVY_ATOM_COUNT>
15

> <PUBCHEM_ATOM_DEF_STEREO_COUNT>
0

> <PUBCHEM_ATOM_UDEF_STEREO_COUNT>
0

> <PUBCHEM_BOND_DEF_STEREO_COUNT>
1

> <PUBCHEM_BOND_UDEF_STEREO_COUNT>
0

> <PUBCHEM_ISOTOPIC_ATOM_COUNT>
0

> <PUBCHEM_COMPONENT_COUNT>
1

> <PUBCHEM_CACTVS_TAUTO_COUNT>
2

> <PUBCHEM_CONFORMER_ID>
00621DEC00000001

> <PUBCHEM_MMFF94_ENERGY>
0.6051

> <PUBCHEM_FEATURE_SELFOVERLAP>
15.223

> <PUBCHEM_SHAPE_FINGERPRINT>
12107183 9 18190730943647712138
12633257 1 15647348436935051427
12760667 363 8070026658427052547
13911852 28 8645895873554347593
14123255 352 18341894090908066554
14251732 14 8069741966477958050
14251764 30 9294988177454797237
14251764 75 18197506117149859969
14598715 104 17844514704102094584
15061688 2 18339923693674066751
15519825 34 16443930356979980745
16120349 189 18261386698988239269
17780758 139 12468353536105644319
17834072 32 18411419467049830265
193927 3 11386364820688547154
20281389 69 18341894134448434130
20645477 56 17988651855696559563
21054139 6 11455896858535681028
21302155 148 18334584554945178612
21401589 2 18337119964961490273
23379529 103 9870879391266769901
25122255 55 8069763922219035848
270888 7 18339358544618353033
2748736 6 18338506431438558197
2838139 119 18342729702517756357
316301 35 8502073150485014188
3246875 12 18338239263857325185
59682541 52 16558475167331421756
6327066 14 18337948996533978917
7062679 6 18337112358205169276
7808743 9 18410570678306266793
8217 86 9294992596706612914

> <PUBCHEM_SHAPE_MULTIPOLES>
302.82
15.41
3.64
0.87
15.54
1.37
0
17.69
0.74
-5.24
-0.41
0.05
-0.11
0.16

> <PUBCHEM_SHAPE_SELFOVERLAP>
550.113

> <PUBCHEM_SHAPE_VOLUME>
192.7

> <PUBCHEM_COORDINATE_TYPE>
2
5
10

$$$$
