6430307
  -OEChem-11232109423D

 23 22  0     1  0  0  0  0  0999 V2000
   -1.1655   -1.2431    1.0011 O   0  0  0  0  0  0  0  0  0  0  0  0
   -0.1369    0.3298   -0.5065 C   0  0  0  0  0  0  0  0  0  0  0  0
   -1.4361   -0.3790   -0.1029 C   0  0  2  0  0  0  0  0  0  0  0  0
    0.9004   -0.6465   -0.9913 C   0  0  0  0  0  0  0  0  0  0  0  0
    2.6005    0.0457    0.7162 C   0  0  0  0  0  0  0  0  0  0  0  0
    2.1192   -0.7718   -0.4456 C   0  0  0  0  0  0  0  0  0  0  0  0
   -2.4767    0.6182    0.3223 C   0  0  0  0  0  0  0  0  0  0  0  0
    3.2793    1.3245    0.2508 C   0  0  0  0  0  0  0  0  0  0  0  0
   -3.6841    0.7224   -0.2442 C   0  0  0  0  0  0  0  0  0  0  0  0
    0.2177    0.9526    0.3192 H   0  0  0  0  0  0  0  0  0  0  0  0
   -0.3467    1.0201   -1.3343 H   0  0  0  0  0  0  0  0  0  0  0  0
   -1.8032   -1.0040   -0.9254 H   0  0  0  0  0  0  0  0  0  0  0  0
    0.6433   -1.2691   -1.8443 H   0  0  0  0  0  0  0  0  0  0  0  0
    3.3283   -0.5587    1.2722 H   0  0  0  0  0  0  0  0  0  0  0  0
    1.8073    0.2666    1.4368 H   0  0  0  0  0  0  0  0  0  0  0  0
    2.8137   -1.4892   -0.8746 H   0  0  0  0  0  0  0  0  0  0  0  0
   -2.2324    1.2838    1.1467 H   0  0  0  0  0  0  0  0  0  0  0  0
    4.1182    1.1077   -0.4194 H   0  0  0  0  0  0  0  0  0  0  0  0
    3.6705    1.8775    1.1109 H   0  0  0  0  0  0  0  0  0  0  0  0
    2.5794    1.9787   -0.2795 H   0  0  0  0  0  0  0  0  0  0  0  0
   -0.7856   -0.7085    1.7196 H   0  0  0  0  0  0  0  0  0  0  0  0
   -4.3956    1.4598    0.1111 H   0  0  0  0  0  0  0  0  0  0  0  0
   -3.9828    0.0808   -1.0657 H   0  0  0  0  0  0  0  0  0  0  0  0
  1  3  1  0  0  0  0
  1 21  1  0  0  0  0
  2  3  1  0  0  0  0
  2  4  1  0  0  0  0
  2 10  1  0  0  0  0
  2 11  1  0  0  0  0
  3  7  1  0  0  0  0
  3 12  1  0  0  0  0
  4  6  2  0  0  0  0
  4 13  1  0  0  0  0
  5  6  1  0  0  0  0
  5  8  1  0  0  0  0
  5 14  1  0  0  0  0
  5 15  1  0  0  0  0
  6 16  1  0  0  0  0
  7  9  2  0  0  0  0
  7 17  1  0  0  0  0
  8 18  1  0  0  0  0
  8 19  1  0  0  0  0
  8 20  1  0  0  0  0
  9 22  1  0  0  0  0
  9 23  1  0  0  0  0
M  END
> <PUBCHEM_COMPOUND_CID>
6430307

> <PUBCHEM_CONFORMER_RMSD>
0.6

> <PUBCHEM_CONFORMER_DIVERSEORDER>
4
20
42
55
36
38
45
22
58
43
16
19
47
39
15
59
44
17
41
29
49
57
18
53
40
54
56
35
31
50
12
48
51
8
52
30
1
32
9
7
10
46
27
3
14
23
21
2
13
37
6
25
34
33
5
28
11
24
26

> <PUBCHEM_MMFF94_PARTIAL_CHARGES>
14
1 -0.68
13 0.15
16 0.15
17 0.15
2 0.14
21 0.4
22 0.15
23 0.15
3 0.42
4 -0.29
5 0.14
6 -0.29
7 -0.29
9 -0.3

> <PUBCHEM_EFFECTIVE_ROTOR_COUNT>
4

> <PUBCHEM_PHARMACOPHORE_FEATURES>
4
1 1 acceptor
1 1 donor
1 8 hydrophobe
1 9 hydrophobe

> <PUBCHEM_HEAVY_ATOM_COUNT>
9

> <PUBCHEM_ATOM_DEF_STEREO_COUNT>
0

> <PUBCHEM_ATOM_UDEF_STEREO_COUNT>
1

> <PUBCHEM_BOND_DEF_STEREO_COUNT>
1

> <PUBCHEM_BOND_UDEF_STEREO_COUNT>
0

> <PUBCHEM_ISOTOPIC_ATOM_COUNT>
0

> <PUBCHEM_COMPONENT_COUNT>
1

> <PUBCHEM_CACTVS_TAUTO_COUNT>
1

> <PUBCHEM_CONFORMER_ID>
00621E6300000004

> <PUBCHEM_MMFF94_ENERGY>
5.5241

> <PUBCHEM_FEATURE_SELFOVERLAP>
20.297

> <PUBCHEM_SHAPE_FINGERPRINT>
11062470 55 18411417297943659333
12162725 195 17988925518106068809
12897270 3 12535346787732793413
12932741 1 18200050493918629582
12932764 1 18261111829148801583
14325111 11 18202001006250503855
14390081 3 17989489606199397641
15775835 57 17346593110361557744
170605 34 18131631188325819030
20645464 45 18334296469791733203
20653085 51 17416424064562086929
21293036 1 14405176291940682585
22485316 2 11458430149825216945
23380061 50 18335420192292594753
23552423 10 14188193062704838341
3248919 1 16200158668228634974
8030462 33 14692579796867810966

> <PUBCHEM_SHAPE_MULTIPOLES>
179.35
5.84
1.19
0.93
1.33
0.11
-0.08
2.41
-0.24
-0.51
-0.03
-0.04
-0.18
0.34

> <PUBCHEM_SHAPE_SELFOVERLAP>
326.577

> <PUBCHEM_SHAPE_VOLUME>
114.6

> <PUBCHEM_COORDINATE_TYPE>
2
5
10

$$$$
