6430804
  -OEChem-11232109023D

 30 29  0     0  0  0  0  0  0999 V2000
   -0.4715   -0.2143   -0.1941 O   0  0  0  0  0  0  0  0  0  0  0  0
   -1.6625   -0.5842    1.7414 O   0  0  0  0  0  0  0  0  0  0  0  0
    3.2515   -0.0683    0.2895 C   0  0  0  0  0  0  0  0  0  0  0  0
    1.9053   -0.0456   -0.4309 C   0  0  0  0  0  0  0  0  0  0  0  0
    4.4050    0.1909   -0.6791 C   0  0  0  0  0  0  0  0  0  0  0  0
    0.7478   -0.2612    0.5338 C   0  0  0  0  0  0  0  0  0  0  0  0
    5.7445    0.2026    0.0401 C   0  0  0  0  0  0  0  0  0  0  0  0
   -1.6129   -0.3920    0.5349 C   0  0  0  0  0  0  0  0  0  0  0  0
   -2.8045   -0.3229   -0.3645 C   0  0  0  0  0  0  0  0  0  0  0  0
   -3.2728   -1.5862   -1.0238 C   0  0  0  0  0  0  0  0  0  0  0  0
   -3.3450    0.8984   -0.5305 C   0  0  0  0  0  0  0  0  0  0  0  0
   -2.8850    2.1828    0.0831 C   0  0  0  0  0  0  0  0  0  0  0  0
    3.3916   -1.0399    0.7787 H   0  0  0  0  0  0  0  0  0  0  0  0
    3.2580    0.6941    1.0781 H   0  0  0  0  0  0  0  0  0  0  0  0
    1.8784   -0.8166   -1.2110 H   0  0  0  0  0  0  0  0  0  0  0  0
    1.7687    0.9112   -0.9505 H   0  0  0  0  0  0  0  0  0  0  0  0
    4.4193   -0.5820   -1.4562 H   0  0  0  0  0  0  0  0  0  0  0  0
    4.2604    1.1542   -1.1819 H   0  0  0  0  0  0  0  0  0  0  0  0
    0.7453    0.5244    1.2985 H   0  0  0  0  0  0  0  0  0  0  0  0
    0.8442   -1.2377    1.0228 H   0  0  0  0  0  0  0  0  0  0  0  0
    5.7744    0.9886    0.8015 H   0  0  0  0  0  0  0  0  0  0  0  0
    5.9352   -0.7578    0.5296 H   0  0  0  0  0  0  0  0  0  0  0  0
    6.5551    0.3882   -0.6714 H   0  0  0  0  0  0  0  0  0  0  0  0
   -4.1339   -1.4069   -1.6755 H   0  0  0  0  0  0  0  0  0  0  0  0
   -2.4718   -2.0170   -1.6329 H   0  0  0  0  0  0  0  0  0  0  0  0
   -3.5677   -2.3204   -0.2675 H   0  0  0  0  0  0  0  0  0  0  0  0
   -4.2078    0.9879   -1.1879 H   0  0  0  0  0  0  0  0  0  0  0  0
   -2.6216    2.8920   -0.7080 H   0  0  0  0  0  0  0  0  0  0  0  0
   -2.0185    2.0808    0.7407 H   0  0  0  0  0  0  0  0  0  0  0  0
   -3.6992    2.6187    0.6708 H   0  0  0  0  0  0  0  0  0  0  0  0
  1  6  1  0  0  0  0
  1  8  1  0  0  0  0
  2  8  2  0  0  0  0
  3  4  1  0  0  0  0
  3  5  1  0  0  0  0
  3 13  1  0  0  0  0
  3 14  1  0  0  0  0
  4  6  1  0  0  0  0
  4 15  1  0  0  0  0
  4 16  1  0  0  0  0
  5  7  1  0  0  0  0
  5 17  1  0  0  0  0
  5 18  1  0  0  0  0
  6 19  1  0  0  0  0
  6 20  1  0  0  0  0
  7 21  1  0  0  0  0
  7 22  1  0  0  0  0
  7 23  1  0  0  0  0
  8  9  1  0  0  0  0
  9 10  1  0  0  0  0
  9 11  2  0  0  0  0
 10 24  1  0  0  0  0
 10 25  1  0  0  0  0
 10 26  1  0  0  0  0
 11 12  1  0  0  0  0
 11 27  1  0  0  0  0
 12 28  1  0  0  0  0
 12 29  1  0  0  0  0
 12 30  1  0  0  0  0
M  END
> <PUBCHEM_COMPOUND_CID>
6430804

> <PUBCHEM_CONFORMER_RMSD>
0.6

> <PUBCHEM_CONFORMER_DIVERSEORDER>
2
312
334
87
177
362
195
263
249
234
167
144
64
126
292
163
239
255
271
56
342
284
322
259
260
74
104
174
52
192
39
258
178
156
125
93
282
207
243
145
110
305
193
370
114
307
82
66
175
315
318
162
196
92
102
313
85
266
245
251
335
338
170
183
138
169
375
272
124
94
367
199
189
171
81
283
121
227
359
136
262
68
291
90
79
213
132
117
137
111
18
336
357
212
38
316
229
1
270
377
297
349
88
287
211
354
241
141
155
40
267
216
306
180
265
317
130
253
43
329
191
236
320
131
225
274
295
222
294
24
6
83
22
165
139
75
369
326
157
332
113
268
80
256
100
181
187
122
355
372
378
331
254
160
76
202
290
7
25
364
63
128
293
353
303
61
205
101
200
31
70
366
62
348
98
116
179
77
244
279
23
5
333
109
127
48
304
73
49
173
208
44
368
146
321
358
289
3
78
97
280
86
115
133
50
376
298
246
308
105
264
119
185
89
4
276
337
351
46
99
341
252
365
19
240
319
330
361
42
288
373
176
13
314
120
69
269
275
45
106
210
325
237
197
206
296
28
21
217
363
198
17
58
184
134
311
352
57
148
194
257
143
277
371
233
129
232
182
112
107
278
37
123
235
135
327
36
152
285
231
190
228
219
91
347
220
340
35
29
247
151
345
215
55
10
12
72
204
209
299
30
186
161
286
172
84
9
47
224
339
360
166
140
53
34
356
8
221
309
149
214
108
301
346
158
16
328
26
300
142
60
344
310
59
201
223
14
118
71
324
374
323
164
248
33
250
65
51
54
150
67
273
343
238
230
168
218
302
203
95
188
15
242
32
20
147
154
11
261
281
159
41
350
153
96
27
103
226

> <PUBCHEM_MMFF94_PARTIAL_CHARGES>
9
1 -0.43
10 0.14
11 -0.29
12 0.14
2 -0.57
27 0.15
6 0.28
8 0.71
9 -0.12

> <PUBCHEM_EFFECTIVE_ROTOR_COUNT>
6

> <PUBCHEM_PHARMACOPHORE_FEATURES>
4
1 10 hydrophobe
1 12 hydrophobe
1 2 acceptor
1 7 hydrophobe

> <PUBCHEM_HEAVY_ATOM_COUNT>
12

> <PUBCHEM_ATOM_DEF_STEREO_COUNT>
0

> <PUBCHEM_ATOM_UDEF_STEREO_COUNT>
0

> <PUBCHEM_BOND_DEF_STEREO_COUNT>
1

> <PUBCHEM_BOND_UDEF_STEREO_COUNT>
0

> <PUBCHEM_ISOTOPIC_ATOM_COUNT>
0

> <PUBCHEM_COMPONENT_COUNT>
1

> <PUBCHEM_CACTVS_TAUTO_COUNT>
1

> <PUBCHEM_CONFORMER_ID>
0062205400000002

> <PUBCHEM_MMFF94_ENERGY>
12.3242

> <PUBCHEM_FEATURE_SELFOVERLAP>
20.297

> <PUBCHEM_SHAPE_FINGERPRINT>
10014705 185 18259982652203257997
10680689 15 18341338854963796178
12091667 2 18409171026433242502
13675066 3 13262396661704403142
14123238 8 12175618482600837638
14123260 362 17967542241691555020
17834072 33 17845934156222147564
18186145 218 17632856438699334362
19489759 90 18409442588256272928
1986462 14 18131070441469022580
20112054 13 16226328101895499565
20300324 65 18410008853518349349
20645464 45 16588030095451537523
20645477 56 18272089357994550041
20645477 70 18129666279886230014
20871999 31 18131339809518429949
21061003 4 16056314042113488667
21426921 1 18342454850902777837
22485316 2 18273495659252220078
22959321 105 18060418027676101894
2306618 200 17917717894080555625
23380061 127 18411134749098413807
23402539 116 18333725836178736439
23557571 272 18060423516628702765

> <PUBCHEM_SHAPE_MULTIPOLES>
235.22
10.22
1.37
1.03
15.14
0.51
0.29
1.11
-1.99
-2.26
-0.23
-0.45
-0.19
-0.21

> <PUBCHEM_SHAPE_SELFOVERLAP>
435.787

> <PUBCHEM_SHAPE_VOLUME>
148.8

> <PUBCHEM_COORDINATE_TYPE>
2
5
10

$$$$
