6430151
  -OEChem-11232109193D

 35 34  0     0  0  0  0  0  0999 V2000
   -4.3793    2.2543    0.6028 O   0  0  0  0  0  0  0  0  0  0  0  0
    2.7337   -0.5072    0.1151 C   0  0  0  0  0  0  0  0  0  0  0  0
    3.2676    0.8153   -0.4446 C   0  0  0  0  0  0  0  0  0  0  0  0
    1.7388   -1.1974   -0.8234 C   0  0  0  0  0  0  0  0  0  0  0  0
   -1.8694   -1.1452   -0.1269 C   0  0  0  0  0  0  0  0  0  0  0  0
   -0.7374   -1.3687    0.8783 C   0  0  0  0  0  0  0  0  0  0  0  0
    4.2763    1.4540    0.5106 C   0  0  0  0  0  0  0  0  0  0  0  0
   -2.7039    0.0856    0.2415 C   0  0  0  0  0  0  0  0  0  0  0  0
    1.2000   -2.4809   -0.2613 C   0  0  0  0  0  0  0  0  0  0  0  0
    0.0965   -2.5569    0.4972 C   0  0  0  0  0  0  0  0  0  0  0  0
   -3.8341    0.3382   -0.7515 C   0  0  0  0  0  0  0  0  0  0  0  0
    4.8404    2.7464   -0.0583 C   0  0  0  0  0  0  0  0  0  0  0  0
   -4.6290    1.5624   -0.3793 C   0  0  0  0  0  0  0  0  0  0  0  0
    2.2607   -0.3178    1.0866 H   0  0  0  0  0  0  0  0  0  0  0  0
    3.5764   -1.1845    0.3054 H   0  0  0  0  0  0  0  0  0  0  0  0
    2.4324    1.5050   -0.6162 H   0  0  0  0  0  0  0  0  0  0  0  0
    3.7431    0.6339   -1.4161 H   0  0  0  0  0  0  0  0  0  0  0  0
    2.2364   -1.4277   -1.7741 H   0  0  0  0  0  0  0  0  0  0  0  0
    0.9297   -0.5054   -1.0824 H   0  0  0  0  0  0  0  0  0  0  0  0
   -2.5183   -2.0297   -0.1580 H   0  0  0  0  0  0  0  0  0  0  0  0
   -1.4609   -1.0141   -1.1365 H   0  0  0  0  0  0  0  0  0  0  0  0
   -1.1573   -1.5505    1.8755 H   0  0  0  0  0  0  0  0  0  0  0  0
   -0.1318   -0.4615    0.9750 H   0  0  0  0  0  0  0  0  0  0  0  0
    3.7965    1.6624    1.4738 H   0  0  0  0  0  0  0  0  0  0  0  0
    5.1010    0.7576    0.7024 H   0  0  0  0  0  0  0  0  0  0  0  0
   -2.0499    0.9660    0.2850 H   0  0  0  0  0  0  0  0  0  0  0  0
   -3.1201   -0.0456    1.2485 H   0  0  0  0  0  0  0  0  0  0  0  0
    1.7499   -3.3922   -0.4801 H   0  0  0  0  0  0  0  0  0  0  0  0
   -0.2278   -3.5305    0.8549 H   0  0  0  0  0  0  0  0  0  0  0  0
   -3.4350    0.4926   -1.7595 H   0  0  0  0  0  0  0  0  0  0  0  0
   -4.5216   -0.5134   -0.7782 H   0  0  0  0  0  0  0  0  0  0  0  0
    4.0447    3.4773   -0.2346 H   0  0  0  0  0  0  0  0  0  0  0  0
    5.3572    2.5653   -1.0062 H   0  0  0  0  0  0  0  0  0  0  0  0
    5.5579    3.1869    0.6409 H   0  0  0  0  0  0  0  0  0  0  0  0
   -5.4667    1.8098   -1.0529 H   0  0  0  0  0  0  0  0  0  0  0  0
  1 13  2  0  0  0  0
  2  3  1  0  0  0  0
  2  4  1  0  0  0  0
  2 14  1  0  0  0  0
  2 15  1  0  0  0  0
  3  7  1  0  0  0  0
  3 16  1  0  0  0  0
  3 17  1  0  0  0  0
  4  9  1  0  0  0  0
  4 18  1  0  0  0  0
  4 19  1  0  0  0  0
  5  6  1  0  0  0  0
  5  8  1  0  0  0  0
  5 20  1  0  0  0  0
  5 21  1  0  0  0  0
  6 10  1  0  0  0  0
  6 22  1  0  0  0  0
  6 23  1  0  0  0  0
  7 12  1  0  0  0  0
  7 24  1  0  0  0  0
  7 25  1  0  0  0  0
  8 11  1  0  0  0  0
  8 26  1  0  0  0  0
  8 27  1  0  0  0  0
  9 10  2  0  0  0  0
  9 28  1  0  0  0  0
 10 29  1  0  0  0  0
 11 13  1  0  0  0  0
 11 30  1  0  0  0  0
 11 31  1  0  0  0  0
 12 32  1  0  0  0  0
 12 33  1  0  0  0  0
 12 34  1  0  0  0  0
 13 35  1  0  0  0  0
M  END
> <PUBCHEM_COMPOUND_CID>
6430151

> <PUBCHEM_CONFORMER_RMSD>
1

> <PUBCHEM_CONFORMER_DIVERSEORDER>
1
31
226
220
421
2
24
318
7
26
283
336
28
22
16
100
346
161
423
142
129
481
63
228
10
14
64
11
191
91
93
498
136
35
133
307
260
243
380
73
461
3
193
20
323
5
393
450
147
48
112
42
275
176
68
6
151
344
41
221
157
407
67
288
101
85
212
125
262
99
75
13
355
37
480

> <PUBCHEM_MMFF94_PARTIAL_CHARGES>
10
1 -0.57
10 -0.29
11 0.06
13 0.45
28 0.15
29 0.15
35 0.06
4 0.14
6 0.14
9 -0.29

> <PUBCHEM_EFFECTIVE_ROTOR_COUNT>
9

> <PUBCHEM_PHARMACOPHORE_FEATURES>
4
1 1 acceptor
1 12 hydrophobe
5 2 3 4 7 9 hydrophobe
5 5 6 8 10 11 hydrophobe

> <PUBCHEM_HEAVY_ATOM_COUNT>
13

> <PUBCHEM_ATOM_DEF_STEREO_COUNT>
0

> <PUBCHEM_ATOM_UDEF_STEREO_COUNT>
0

> <PUBCHEM_BOND_DEF_STEREO_COUNT>
1

> <PUBCHEM_BOND_UDEF_STEREO_COUNT>
0

> <PUBCHEM_ISOTOPIC_ATOM_COUNT>
0

> <PUBCHEM_COMPONENT_COUNT>
1

> <PUBCHEM_CACTVS_TAUTO_COUNT>
2

> <PUBCHEM_CONFORMER_ID>
00621DC700000001

> <PUBCHEM_MMFF94_ENERGY>
0.9911

> <PUBCHEM_FEATURE_SELFOVERLAP>
20.297

> <PUBCHEM_SHAPE_FINGERPRINT>
10968037 57 8935003681090381445
12006461 19 9079112263126669503
122479 349 18335983176917152966
12769317 202 18341601590740140912
13103583 49 11963660067719960927
14123255 352 18335699481146905748
14123255 52 18410574002341882822
14251710 61 9439404631304635479
14251732 17 18411417328509453878
14251764 30 11963658960241313280
14251764 75 18341905090494080377
15061688 2 18410291441044693734
17834072 32 18337392750797743988
1798214 55 18408325488278548836
19752476 56 18200880556409519232
19782 4 18335417988953285742
20621476 13 18337390435409750100
20621476 91 16951433034323875457
21354914 76 9007049171456697519
21401589 2 18262242217481150265
23590187 32 18338236080373786044
270888 7 18410008862145700788
43658 37 18411136922420651543
474 4 18409164381364533131
8199 26 18411419518193714469
94968 8 10807923869244112670

> <PUBCHEM_SHAPE_MULTIPOLES>
261.66
10.48
3.28
0.87
0.72
0.08
0.01
12.69
0.31
-1.16
-0.28
0.11
-0.09
0.24

> <PUBCHEM_SHAPE_SELFOVERLAP>
475.118

> <PUBCHEM_SHAPE_VOLUME>
166.5

> <PUBCHEM_COORDINATE_TYPE>
2
5
10

$$$$
