6431476
  -OEChem-11232109163D

 30 30  0     1  0  0  0  0  0999 V2000
   -0.3490   -0.9229   -0.0315 O   0  0  0  0  0  0  0  0  0  0  0  0
    1.9977    1.9515    0.1286 O   0  0  0  0  0  0  0  0  0  0  0  0
   -1.6069   -0.2397   -0.0034 C   0  0  0  0  0  0  0  0  0  0  0  0
    0.8621   -0.1961   -0.2782 C   0  0  2  0  0  0  0  0  0  0  0  0
    0.9316    1.1052    0.5524 C   0  0  2  0  0  0  0  0  0  0  0  0
   -1.5432    1.0401    0.8419 C   0  0  0  0  0  0  0  0  0  0  0  0
   -0.3587    1.9126    0.4646 C   0  0  0  0  0  0  0  0  0  0  0  0
   -2.5793   -1.2262    0.6667 C   0  0  0  0  0  0  0  0  0  0  0  0
   -2.1312    0.0300   -1.4198 C   0  0  0  0  0  0  0  0  0  0  0  0
    1.0795    0.0273   -1.7804 C   0  0  0  0  0  0  0  0  0  0  0  0
    1.9578   -1.1308    0.1787 C   0  0  0  0  0  0  0  0  0  0  0  0
    1.7395   -2.3511    0.6803 C   0  0  0  0  0  0  0  0  0  0  0  0
    1.0990    0.8673    1.6117 H   0  0  0  0  0  0  0  0  0  0  0  0
   -1.4332    0.7734    1.9017 H   0  0  0  0  0  0  0  0  0  0  0  0
   -2.4750    1.6114    0.7560 H   0  0  0  0  0  0  0  0  0  0  0  0
   -0.4837    2.3368   -0.5383 H   0  0  0  0  0  0  0  0  0  0  0  0
   -0.2999    2.7766    1.1384 H   0  0  0  0  0  0  0  0  0  0  0  0
   -2.6488   -2.1570    0.0914 H   0  0  0  0  0  0  0  0  0  0  0  0
   -2.2227   -1.5086    1.6644 H   0  0  0  0  0  0  0  0  0  0  0  0
   -3.5846   -0.8034    0.7659 H   0  0  0  0  0  0  0  0  0  0  0  0
   -1.6037    0.8480   -1.9133 H   0  0  0  0  0  0  0  0  0  0  0  0
   -2.0139   -0.8556   -2.0543 H   0  0  0  0  0  0  0  0  0  0  0  0
   -3.1913    0.3072   -1.4044 H   0  0  0  0  0  0  0  0  0  0  0  0
    2.1220    0.2742   -2.0143 H   0  0  0  0  0  0  0  0  0  0  0  0
    0.8026   -0.8639   -2.3559 H   0  0  0  0  0  0  0  0  0  0  0  0
    0.4759    0.8530   -2.1637 H   0  0  0  0  0  0  0  0  0  0  0  0
    2.9878   -0.7928    0.0901 H   0  0  0  0  0  0  0  0  0  0  0  0
    2.8323    1.4778    0.2810 H   0  0  0  0  0  0  0  0  0  0  0  0
    2.5854   -2.9609    0.9833 H   0  0  0  0  0  0  0  0  0  0  0  0
    0.7584   -2.7904    0.8118 H   0  0  0  0  0  0  0  0  0  0  0  0
  1  3  1  0  0  0  0
  1  4  1  0  0  0  0
  2  5  1  0  0  0  0
  2 28  1  0  0  0  0
  3  6  1  0  0  0  0
  3  8  1  0  0  0  0
  3  9  1  0  0  0  0
  4  5  1  0  0  0  0
  4 10  1  0  0  0  0
  4 11  1  0  0  0  0
  5  7  1  0  0  0  0
  5 13  1  0  0  0  0
  6  7  1  0  0  0  0
  6 14  1  0  0  0  0
  6 15  1  0  0  0  0
  7 16  1  0  0  0  0
  7 17  1  0  0  0  0
  8 18  1  0  0  0  0
  8 19  1  0  0  0  0
  8 20  1  0  0  0  0
  9 21  1  0  0  0  0
  9 22  1  0  0  0  0
  9 23  1  0  0  0  0
 10 24  1  0  0  0  0
 10 25  1  0  0  0  0
 10 26  1  0  0  0  0
 11 12  2  0  0  0  0
 11 27  1  0  0  0  0
 12 29  1  0  0  0  0
 12 30  1  0  0  0  0
M  END
> <PUBCHEM_COMPOUND_CID>
6431476

> <PUBCHEM_CONFORMER_RMSD>
0.6

> <PUBCHEM_CONFORMER_DIVERSEORDER>
1
2
3
4

> <PUBCHEM_MMFF94_PARTIAL_CHARGES>
11
1 -0.56
11 -0.29
12 -0.3
2 -0.68
27 0.15
28 0.4
29 0.15
3 0.28
30 0.15
4 0.42
5 0.28

> <PUBCHEM_EFFECTIVE_ROTOR_COUNT>
2.2

> <PUBCHEM_PHARMACOPHORE_FEATURES>
6
1 1 acceptor
1 12 hydrophobe
1 2 acceptor
1 2 donor
3 3 8 9 hydrophobe
6 1 3 4 5 6 7 rings

> <PUBCHEM_HEAVY_ATOM_COUNT>
12

> <PUBCHEM_ATOM_DEF_STEREO_COUNT>
2

> <PUBCHEM_ATOM_UDEF_STEREO_COUNT>
0

> <PUBCHEM_BOND_DEF_STEREO_COUNT>
0

> <PUBCHEM_BOND_UDEF_STEREO_COUNT>
0

> <PUBCHEM_ISOTOPIC_ATOM_COUNT>
0

> <PUBCHEM_COMPONENT_COUNT>
1

> <PUBCHEM_CACTVS_TAUTO_COUNT>
1

> <PUBCHEM_CONFORMER_ID>
006222F400000001

> <PUBCHEM_MMFF94_ENERGY>
37.8254

> <PUBCHEM_FEATURE_SELFOVERLAP>
30.446

> <PUBCHEM_SHAPE_FINGERPRINT>
12326174 3 18201444734702312974
12423570 1 14438017751032767548
13024252 1 12255891472343788818
14128692 85 18041858202722353998
14817 1 13725826544503479292
15076042 46 17113261036204688018
16945 1 18336260146172217024
18185500 45 18193283987633987578
20082192 1 17095250236756155791
20511035 2 18058434435516695705
20653091 64 18411986853461797522
20871998 184 17625255312689382974
23211744 25 17978270258469553852
23419403 2 16975264823305160592
23552423 10 18409455794774344873
2748010 2 18413672417703858201
5084963 1 17749116590454281715
528886 8 16772128040007393821
54338 74 17978493252907636155

> <PUBCHEM_SHAPE_MULTIPOLES>
235.22
3.14
2.14
1.25
0.57
0.2
0.62
-1.2
-0.15
-0.82
-0.72
0.16
0.01
-0.21

> <PUBCHEM_SHAPE_SELFOVERLAP>
467.402

> <PUBCHEM_SHAPE_VOLUME>
140.2

> <PUBCHEM_COORDINATE_TYPE>
2
5
10

$$$$
