6432923
  -OEChem-11232109123D

 33 32  0     1  0  0  0  0  0999 V2000
   -2.4639   -1.2896   -0.7310 O   0  0  0  0  0  0  0  0  0  0  0  0
    3.6810    0.5196   -0.0707 O   0  0  0  0  0  0  0  0  0  0  0  0
    2.6170   -1.4836    0.3489 O   0  0  0  0  0  0  0  0  0  0  0  0
   -2.4872   -0.2174    0.2082 C   0  0  1  0  0  0  0  0  0  0  0  0
   -1.2072    0.6124    0.0512 C   0  0  0  0  0  0  0  0  0  0  0  0
   -3.7682    0.6092    0.0220 C   0  0  0  0  0  0  0  0  0  0  0  0
    0.0548   -0.2450    0.2281 C   0  0  0  0  0  0  0  0  0  0  0  0
   -5.0638   -0.1982    0.1485 C   0  0  0  0  0  0  0  0  0  0  0  0
    1.3390    0.5619    0.0333 C   0  0  0  0  0  0  0  0  0  0  0  0
   -6.2866    0.6821   -0.0637 C   0  0  0  0  0  0  0  0  0  0  0  0
    2.5924   -0.2787    0.1380 C   0  0  0  0  0  0  0  0  0  0  0  0
    4.9487   -0.1439   -0.0327 C   0  0  0  0  0  0  0  0  0  0  0  0
    6.0441    0.8713   -0.2801 C   0  0  0  0  0  0  0  0  0  0  0  0
   -2.4926   -0.6628    1.2109 H   0  0  0  0  0  0  0  0  0  0  0  0
   -1.2039    1.4331    0.7780 H   0  0  0  0  0  0  0  0  0  0  0  0
   -1.1856    1.0580   -0.9513 H   0  0  0  0  0  0  0  0  0  0  0  0
   -3.7488    1.0657   -0.9763 H   0  0  0  0  0  0  0  0  0  0  0  0
   -3.7761    1.4293    0.7504 H   0  0  0  0  0  0  0  0  0  0  0  0
    0.0474   -1.0750   -0.4890 H   0  0  0  0  0  0  0  0  0  0  0  0
    0.0547   -0.6967    1.2280 H   0  0  0  0  0  0  0  0  0  0  0  0
   -5.1155   -0.6619    1.1401 H   0  0  0  0  0  0  0  0  0  0  0  0
   -5.0860   -1.0049   -0.5920 H   0  0  0  0  0  0  0  0  0  0  0  0
    1.3292    1.0268   -0.9593 H   0  0  0  0  0  0  0  0  0  0  0  0
    1.3931    1.3502    0.7925 H   0  0  0  0  0  0  0  0  0  0  0  0
   -6.2777    1.1329   -1.0612 H   0  0  0  0  0  0  0  0  0  0  0  0
   -7.2015    0.0892    0.0330 H   0  0  0  0  0  0  0  0  0  0  0  0
   -6.3237    1.4869    0.6775 H   0  0  0  0  0  0  0  0  0  0  0  0
   -3.1172   -1.9498   -0.4448 H   0  0  0  0  0  0  0  0  0  0  0  0
    5.0887   -0.6076    0.9501 H   0  0  0  0  0  0  0  0  0  0  0  0
    4.9792   -0.9176   -0.8079 H   0  0  0  0  0  0  0  0  0  0  0  0
    7.0292    0.3970   -0.2578 H   0  0  0  0  0  0  0  0  0  0  0  0
    5.9072    1.3568   -1.2519 H   0  0  0  0  0  0  0  0  0  0  0  0
    6.0150    1.6618    0.4771 H   0  0  0  0  0  0  0  0  0  0  0  0
  1  4  1  0  0  0  0
  1 28  1  0  0  0  0
  2 11  1  0  0  0  0
  2 12  1  0  0  0  0
  3 11  2  0  0  0  0
  4  5  1  0  0  0  0
  4  6  1  0  0  0  0
  4 14  1  0  0  0  0
  5  7  1  0  0  0  0
  5 15  1  0  0  0  0
  5 16  1  0  0  0  0
  6  8  1  0  0  0  0
  6 17  1  0  0  0  0
  6 18  1  0  0  0  0
  7  9  1  0  0  0  0
  7 19  1  0  0  0  0
  7 20  1  0  0  0  0
  8 10  1  0  0  0  0
  8 21  1  0  0  0  0
  8 22  1  0  0  0  0
  9 11  1  0  0  0  0
  9 23  1  0  0  0  0
  9 24  1  0  0  0  0
 10 25  1  0  0  0  0
 10 26  1  0  0  0  0
 10 27  1  0  0  0  0
 12 13  1  0  0  0  0
 12 29  1  0  0  0  0
 12 30  1  0  0  0  0
 13 31  1  0  0  0  0
 13 32  1  0  0  0  0
 13 33  1  0  0  0  0
M  END
> <PUBCHEM_COMPOUND_CID>
6432923

> <PUBCHEM_CONFORMER_RMSD>
0.8

> <PUBCHEM_CONFORMER_DIVERSEORDER>
1
426
186
256
350
150
103
274
333
122
448
57
189
287
312
85
13
357
446
316
345
87
62
95
270
407
145
383
244
321
253
410
210
403
275
8
16
344
260
139
358
304
355
183
10
123
68
409
319
281
230
336
404
126
194
293
375
207
6
242
17
363
347
203
389
112
131
26
402
450
101
113
198
259
328
144
236
98
327
265
248
118
171
114
399
167
59
70
343
55
206
164
395
291
276
295
162
99
401
367
163
44
36
308
323
142
419
297
430
11
35
152
227
232
7
311
267
175
56
124
255
21
373
378
341
240
247
283
83
258
335
368
4
58
437
445
432
40
179
288
211
49
342
303
239
398
233
197
5
366
381
66
120
185
429
67
286
428
433
209
93
199
37
272
359
380
271
173
386
201
208
116
32
414
369
196
65
153
229
289
115
391
69
148
107
192
322
177
245
434
427
9
96
86
50
125
273
415
129
29
160
268
74
439
263
294
241
324
385
53
331
2
91
158
361
104
441
420
135
41
300
39
121
298
356
393
302
406
408
307
349
257
338
330
354
140
25
277
440
390
442
435
332
170
278
387
238
235
225
451
296
33
326
168
3
262
352
250
353
45
313
190
348
94
231
22
443
137
100
396
215
388
421
371
376
19
418
351
34
111
252
23
176
382
27
438
249
14
280
30
134
449
178
78
279
174
147
224
51
132
202
392
221
92
317
166
127
38
63
117
149
169
159
138
109
89
172
436
141
444
12
246
301
394
243
370
362
214
423
80
24
416
165
346
372
251
130
76
110
90
223
72
310
42
119
417
105
180
191
318
374
425
217
377
364
97
400
193
52
264
269
161
337
28
220
43
212
314
64
54
181
81
237
329
325
405
106
266
218
187
282
315
61
75
48
143
320
360
379
108
339
102
31
77
447
133
305
60
155
412
20
284
397
261
204
71
228
136
188
84
205
157
292
15
299
182
234
146
222
219
151
79
285
422
18
216
413
154
47
306
156
340
82
365
128
431
213
73
254
309
334
226
46
424
184
195
200
290
411
384
88

> <PUBCHEM_MMFF94_PARTIAL_CHARGES>
8
1 -0.68
11 0.66
12 0.28
2 -0.43
28 0.4
3 -0.57
4 0.28
9 0.06

> <PUBCHEM_EFFECTIVE_ROTOR_COUNT>
8

> <PUBCHEM_PHARMACOPHORE_FEATURES>
4
1 1 acceptor
1 1 donor
1 10 hydrophobe
1 3 acceptor

> <PUBCHEM_HEAVY_ATOM_COUNT>
13

> <PUBCHEM_ATOM_DEF_STEREO_COUNT>
0

> <PUBCHEM_ATOM_UDEF_STEREO_COUNT>
1

> <PUBCHEM_BOND_DEF_STEREO_COUNT>
0

> <PUBCHEM_BOND_UDEF_STEREO_COUNT>
0

> <PUBCHEM_ISOTOPIC_ATOM_COUNT>
0

> <PUBCHEM_COMPONENT_COUNT>
1

> <PUBCHEM_CACTVS_TAUTO_COUNT>
1

> <PUBCHEM_CONFORMER_ID>
0062289B00000001

> <PUBCHEM_MMFF94_ENERGY>
7.2298

> <PUBCHEM_FEATURE_SELFOVERLAP>
20.297

> <PUBCHEM_SHAPE_FINGERPRINT>
10968037 39 18411420626706837477
11287383 113 17168150065196072616
12091667 2 18412545418934000457
12714333 28 18259704506052788432
12815109 37 18410855464454933513
13533116 47 16916790617454969574
14123238 8 18260266343572607401
14251718 22 18413671322634676399
14251764 18 18413109459930388937
14251764 46 18131632274868096780
15048467 5 18409167714080105525
15242433 33 18413670205648111702
15242439 84 17060618914589304490
17834072 33 18272367602638681589
17834072 8 18202279204573537869
17834076 25 18413107264358237592
187816 3 16558750109847354419
20279233 1 17095251297512909922
20621476 66 18198913522388425505
20645477 56 18333445448277176829
20645477 70 18337953364178407286
20767249 213 18410856568551665957
21130983 4 17603872217053808092
23402539 116 11314310576835490193
23402655 69 18411134719133908308
23559900 14 17489578008936630545
300161 21 18413100667167151627
3545911 37 18410856563934756872
42788 4 18334295366122333641
4463277 17 18409449189162382645
59345606 91 18409729568980188792
8209 1 18411700984570103461

> <PUBCHEM_SHAPE_MULTIPOLES>
249.93
15.03
1.04
0.65
0.26
0.2
-0.01
-3.36
-0.84
-0.21
-0.04
0.08
0.04
-0.29

> <PUBCHEM_SHAPE_SELFOVERLAP>
457.285

> <PUBCHEM_SHAPE_VOLUME>
159.3

> <PUBCHEM_COORDINATE_TYPE>
2
5
10

$$$$
