6432308
  -OEChem-11232109093D

 39 40  0     1  0  0  0  0  0999 V2000
    0.1014   -0.1754    0.6095 C   0  0  2  0  0  0  0  0  0  0  0  0
   -1.0540   -0.5288   -0.3716 C   0  0  2  0  0  0  0  0  0  0  0  0
    0.7034    1.2333    0.3506 C   0  0  1  0  0  0  0  0  0  0  0  0
   -2.1036    0.5964   -0.4178 C   0  0  0  0  0  0  0  0  0  0  0  0
   -1.7515   -1.8457   -0.0059 C   0  0  0  0  0  0  0  0  0  0  0  0
    1.6610    1.2066   -0.8514 C   0  0  0  0  0  0  0  0  0  0  0  0
   -0.3756    2.2809    0.1799 C   0  0  0  0  0  0  0  0  0  0  0  0
   -1.4858    1.9437   -0.7755 C   0  0  0  0  0  0  0  0  0  0  0  0
    1.1838   -1.2328    0.5844 C   0  0  0  0  0  0  0  0  0  0  0  0
    2.8169    0.2313   -0.6136 C   0  0  0  0  0  0  0  0  0  0  0  0
    2.4042   -1.0584    0.0478 C   0  0  0  0  0  0  0  0  0  0  0  0
   -2.3946   -1.7390    1.3722 C   0  0  0  0  0  0  0  0  0  0  0  0
   -2.7890   -2.2069   -1.0628 C   0  0  0  0  0  0  0  0  0  0  0  0
   -0.3622    3.4331    0.8678 C   0  0  0  0  0  0  0  0  0  0  0  0
    3.4455   -2.1383    0.0865 C   0  0  0  0  0  0  0  0  0  0  0  0
   -0.2849   -0.1323    1.6344 H   0  0  0  0  0  0  0  0  0  0  0  0
   -0.6292   -0.6370   -1.3798 H   0  0  0  0  0  0  0  0  0  0  0  0
    1.3061    1.4971    1.2336 H   0  0  0  0  0  0  0  0  0  0  0  0
   -2.6083    0.7211    0.5457 H   0  0  0  0  0  0  0  0  0  0  0  0
   -2.8762    0.3906   -1.1652 H   0  0  0  0  0  0  0  0  0  0  0  0
   -1.0194   -2.6608    0.0108 H   0  0  0  0  0  0  0  0  0  0  0  0
    2.0705    2.2067   -1.0414 H   0  0  0  0  0  0  0  0  0  0  0  0
    1.1280    0.9135   -1.7647 H   0  0  0  0  0  0  0  0  0  0  0  0
   -2.2684    2.7121   -0.7651 H   0  0  0  0  0  0  0  0  0  0  0  0
   -1.0914    1.9148   -1.7983 H   0  0  0  0  0  0  0  0  0  0  0  0
    0.9488   -2.1812    1.0613 H   0  0  0  0  0  0  0  0  0  0  0  0
    3.5699    0.7165    0.0202 H   0  0  0  0  0  0  0  0  0  0  0  0
    3.2972    0.0203   -1.5766 H   0  0  0  0  0  0  0  0  0  0  0  0
   -3.2239   -1.0285    1.4188 H   0  0  0  0  0  0  0  0  0  0  0  0
   -2.8291   -2.7126    1.6339 H   0  0  0  0  0  0  0  0  0  0  0  0
   -1.6848   -1.5129    2.1702 H   0  0  0  0  0  0  0  0  0  0  0  0
   -3.6866   -1.5832   -1.0117 H   0  0  0  0  0  0  0  0  0  0  0  0
   -3.1226   -3.2408   -0.9155 H   0  0  0  0  0  0  0  0  0  0  0  0
   -2.3724   -2.1418   -2.0734 H   0  0  0  0  0  0  0  0  0  0  0  0
    0.4360    3.6653    1.5649 H   0  0  0  0  0  0  0  0  0  0  0  0
   -1.1477    4.1716    0.7477 H   0  0  0  0  0  0  0  0  0  0  0  0
    3.0881   -3.0403    0.5942 H   0  0  0  0  0  0  0  0  0  0  0  0
    4.3359   -1.7874    0.6181 H   0  0  0  0  0  0  0  0  0  0  0  0
    3.7363   -2.4216   -0.9303 H   0  0  0  0  0  0  0  0  0  0  0  0
  1  2  1  0  0  0  0
  1  3  1  0  0  0  0
  1  9  1  0  0  0  0
  1 16  1  0  0  0  0
  2  4  1  0  0  0  0
  2  5  1  0  0  0  0
  2 17  1  0  0  0  0
  3  6  1  0  0  0  0
  3  7  1  0  0  0  0
  3 18  1  0  0  0  0
  4  8  1  0  0  0  0
  4 19  1  0  0  0  0
  4 20  1  0  0  0  0
  5 12  1  0  0  0  0
  5 13  1  0  0  0  0
  5 21  1  0  0  0  0
  6 10  1  0  0  0  0
  6 22  1  0  0  0  0
  6 23  1  0  0  0  0
  7  8  1  0  0  0  0
  7 14  2  0  0  0  0
  8 24  1  0  0  0  0
  8 25  1  0  0  0  0
  9 11  2  0  0  0  0
  9 26  1  0  0  0  0
 10 11  1  0  0  0  0
 10 27  1  0  0  0  0
 10 28  1  0  0  0  0
 11 15  1  0  0  0  0
 12 29  1  0  0  0  0
 12 30  1  0  0  0  0
 12 31  1  0  0  0  0
 13 32  1  0  0  0  0
 13 33  1  0  0  0  0
 13 34  1  0  0  0  0
 14 35  1  0  0  0  0
 14 36  1  0  0  0  0
 15 37  1  0  0  0  0
 15 38  1  0  0  0  0
 15 39  1  0  0  0  0
M  END
> <PUBCHEM_COMPOUND_CID>
6432308

> <PUBCHEM_CONFORMER_RMSD>
0.6

> <PUBCHEM_CONFORMER_DIVERSEORDER>
1
2
3

> <PUBCHEM_MMFF94_PARTIAL_CHARGES>
12
1 0.14
10 0.14
11 -0.28
14 -0.3
15 0.14
26 0.15
3 0.14
35 0.15
36 0.15
7 -0.28
8 0.14
9 -0.29

> <PUBCHEM_EFFECTIVE_ROTOR_COUNT>
2

> <PUBCHEM_PHARMACOPHORE_FEATURES>
3
3 5 12 13 hydrophobe
6 1 2 3 4 7 8 rings
6 1 3 6 9 10 11 rings

> <PUBCHEM_HEAVY_ATOM_COUNT>
15

> <PUBCHEM_ATOM_DEF_STEREO_COUNT>
3

> <PUBCHEM_ATOM_UDEF_STEREO_COUNT>
0

> <PUBCHEM_BOND_DEF_STEREO_COUNT>
0

> <PUBCHEM_BOND_UDEF_STEREO_COUNT>
0

> <PUBCHEM_ISOTOPIC_ATOM_COUNT>
0

> <PUBCHEM_COMPONENT_COUNT>
1

> <PUBCHEM_CACTVS_TAUTO_COUNT>
1

> <PUBCHEM_CONFORMER_ID>
0062263400000001

> <PUBCHEM_MMFF94_ENERGY>
26.804

> <PUBCHEM_FEATURE_SELFOVERLAP>
15.264

> <PUBCHEM_SHAPE_FINGERPRINT>
1 1 16826998764233414572
10756046 5 18261394416885857222
11578080 2 17774708861830962049
12202030 40 16917079819351879782
12423570 1 8934417688405451452
12553582 1 18339930431950551846
13140716 1 18410012117582685842
14713566 1 18119519951634101768
14817 1 17978826456760597455
15001771 113 18408326566415534388
15309172 13 17471016878407672416
15490181 8 17763191236753161716
15906896 17 18122915230703141099
161256 15 18049437342646815869
16945 1 18196929972655380544
20510252 161 17912635809445090936
20645476 183 17826514353385521535
20645477 70 17619048969568661103
21041028 32 18336844038396931347
21452121 199 18265596827642091218
21501502 16 18408886252003867806
21524375 3 17616250282324405329
22802520 49 18188489198003630871
2334 1 18337391650932415482
23402539 116 17982151349615712285
23419403 2 16819043067593955260
23526113 38 17533204500255605339
23557571 272 18343015580368818898
23559900 14 17983000165052700418
23728640 28 17979627936160359898
257057 1 18340472460975414406
2748010 2 18339070592266106844
3060560 45 17546717613686966895
427121 178 15978960989580519041
6338986 31 18341317994007323126
6992083 37 17828208696978370950
7364860 26 17909824676092765937
81228 2 18337104545258692448

> <PUBCHEM_SHAPE_MULTIPOLES>
308.69
4.27
3.48
1.06
1.94
1.88
0.07
-3.54
-0.61
-1.05
0.5
-0.44
-0.09
-0.2

> <PUBCHEM_SHAPE_SELFOVERLAP>
628.696

> <PUBCHEM_SHAPE_VOLUME>
178

> <PUBCHEM_COORDINATE_TYPE>
2
5
10

$$$$
