6432852
  -OEChem-11232109203D

 29 28  0     0  0  0  0  0  0999 V2000
   -4.3414    1.1451    0.7428 O   0  0  0  0  0  0  0  0  0  0  0  0
   -0.7327   -0.9493   -0.2525 C   0  0  0  0  0  0  0  0  0  0  0  0
   -1.9761   -0.1859    0.2197 C   0  0  0  0  0  0  0  0  0  0  0  0
    0.3786   -0.9938    0.8018 C   0  0  0  0  0  0  0  0  0  0  0  0
   -3.0682   -0.1432   -0.8453 C   0  0  0  0  0  0  0  0  0  0  0  0
    1.5665   -1.8038    0.3695 C   0  0  0  0  0  0  0  0  0  0  0  0
    2.7341    0.1504   -0.6841 C   0  0  0  0  0  0  0  0  0  0  0  0
    2.6158   -1.2942   -0.2924 C   0  0  0  0  0  0  0  0  0  0  0  0
    3.4930    0.9904    0.3461 C   0  0  0  0  0  0  0  0  0  0  0  0
    3.6024    2.4589   -0.0392 C   0  0  0  0  0  0  0  0  0  0  0  0
   -4.2719    0.6255   -0.3665 C   0  0  0  0  0  0  0  0  0  0  0  0
   -0.3552   -0.4855   -1.1719 H   0  0  0  0  0  0  0  0  0  0  0  0
   -1.0235   -1.9745   -0.5162 H   0  0  0  0  0  0  0  0  0  0  0  0
   -2.3660   -0.6569    1.1309 H   0  0  0  0  0  0  0  0  0  0  0  0
   -1.6873    0.8367    0.4940 H   0  0  0  0  0  0  0  0  0  0  0  0
   -0.0139   -1.4433    1.7230 H   0  0  0  0  0  0  0  0  0  0  0  0
    0.6696    0.0253    1.0804 H   0  0  0  0  0  0  0  0  0  0  0  0
   -3.3966   -1.1557   -1.1018 H   0  0  0  0  0  0  0  0  0  0  0  0
   -2.7012    0.3428   -1.7552 H   0  0  0  0  0  0  0  0  0  0  0  0
    1.5594   -2.8649    0.6035 H   0  0  0  0  0  0  0  0  0  0  0  0
    1.7528    0.5981   -0.8743 H   0  0  0  0  0  0  0  0  0  0  0  0
    3.2609    0.1950   -1.6459 H   0  0  0  0  0  0  0  0  0  0  0  0
    3.4384   -1.9528   -0.5581 H   0  0  0  0  0  0  0  0  0  0  0  0
    4.5035    0.5837    0.4779 H   0  0  0  0  0  0  0  0  0  0  0  0
    2.9971    0.9215    1.3220 H   0  0  0  0  0  0  0  0  0  0  0  0
    4.1284    2.5738   -0.9922 H   0  0  0  0  0  0  0  0  0  0  0  0
    2.6103    2.9111   -0.1370 H   0  0  0  0  0  0  0  0  0  0  0  0
    4.1561    3.0125    0.7255 H   0  0  0  0  0  0  0  0  0  0  0  0
   -5.1067    0.6992   -1.0838 H   0  0  0  0  0  0  0  0  0  0  0  0
  1 11  2  0  0  0  0
  2  3  1  0  0  0  0
  2  4  1  0  0  0  0
  2 12  1  0  0  0  0
  2 13  1  0  0  0  0
  3  5  1  0  0  0  0
  3 14  1  0  0  0  0
  3 15  1  0  0  0  0
  4  6  1  0  0  0  0
  4 16  1  0  0  0  0
  4 17  1  0  0  0  0
  5 11  1  0  0  0  0
  5 18  1  0  0  0  0
  5 19  1  0  0  0  0
  6  8  2  0  0  0  0
  6 20  1  0  0  0  0
  7  8  1  0  0  0  0
  7  9  1  0  0  0  0
  7 21  1  0  0  0  0
  7 22  1  0  0  0  0
  8 23  1  0  0  0  0
  9 10  1  0  0  0  0
  9 24  1  0  0  0  0
  9 25  1  0  0  0  0
 10 26  1  0  0  0  0
 10 27  1  0  0  0  0
 10 28  1  0  0  0  0
 11 29  1  0  0  0  0
M  END
> <PUBCHEM_COMPOUND_CID>
6432852

> <PUBCHEM_CONFORMER_RMSD>
0.8

> <PUBCHEM_CONFORMER_DIVERSEORDER>
1
181
13
56
176
120
37
9
171
162
57
76
119
108
109
166
7
177
122
62
91
35
174
19
53
172
173
49
124
106
160
84
163
18
112
14
169
155
170
43
99
38
73
83
59
139
147
178
40
151
110
88
44
101
185
66
11
81
184
79
42
167
33
125
4
58
34
152
3
85
107
140
116
64
68
165
60
70
129
82
123
30
127
31
10
145
54
87
89
154
71
126
21
80
131
15
111
137
113
149
47
16
27
153
118
65
128
156
150
182
41
2
168
23
86
96
146
121
12
72
141
183
179
142
97
135
100
8
102
175
36
98
157
6
133
29
78
75
159
63
39
48
114
5
161
138
94
143
117
90
28
69
55
45
132
20
50
32
134
144
17
148
52
164
115
24
22
67
93
136
77
74
130
51
26
46
61
105
92
25
103
104
180
95
158

> <PUBCHEM_MMFF94_PARTIAL_CHARGES>
10
1 -0.57
11 0.45
20 0.15
23 0.15
29 0.06
4 0.14
5 0.06
6 -0.29
7 0.14
8 -0.29

> <PUBCHEM_EFFECTIVE_ROTOR_COUNT>
7

> <PUBCHEM_PHARMACOPHORE_FEATURES>
3
1 1 acceptor
1 10 hydrophobe
5 2 3 4 5 6 hydrophobe

> <PUBCHEM_HEAVY_ATOM_COUNT>
11

> <PUBCHEM_ATOM_DEF_STEREO_COUNT>
0

> <PUBCHEM_ATOM_UDEF_STEREO_COUNT>
0

> <PUBCHEM_BOND_DEF_STEREO_COUNT>
1

> <PUBCHEM_BOND_UDEF_STEREO_COUNT>
0

> <PUBCHEM_ISOTOPIC_ATOM_COUNT>
0

> <PUBCHEM_COMPONENT_COUNT>
1

> <PUBCHEM_CACTVS_TAUTO_COUNT>
2

> <PUBCHEM_CONFORMER_ID>
0062285400000001

> <PUBCHEM_MMFF94_ENERGY>
1.4727

> <PUBCHEM_FEATURE_SELFOVERLAP>
15.223

> <PUBCHEM_SHAPE_FINGERPRINT>
10751810 167 16487255461209430555
11159736 12 11386376975678142489
11715629 250 18260540096155896221
12006461 19 9006789695534611684
122479 349 18189335843632328018
12616999 72 16702303455353953038
12932764 1 17531522075618956279
13237642 15 17822304495863014363
14123255 52 18411417344971982782
14251710 61 10087647013149409221
14415576 193 18272652311746962703
177051 138 8070032172600733444
17834072 32 18046631376426063604
17834072 33 18341607123443573175
18186145 218 18261111837781135455
20606313 2 18411134740835630544
20621476 91 16661783252879433977
20820808 20 18412542124193191194
21354914 76 8790895081325552464
22485316 2 8069735291877135799
22959321 54 18411139121312109905
22959321 60 18114189669702602371
23402655 69 18202847668932547516
23500284 214 18114747134850787818
23590187 32 18046351005160781612
449060 23 10951783987881198094
449060 62 18410013234506206580
474 4 18335419118572103388
94968 8 10807940379457094588

> <PUBCHEM_SHAPE_MULTIPOLES>
220.51
8.78
2.03
0.87
6.31
0.62
0.01
5.66
0.27
-2.35
-0.19
0.2
-0.03
-0.17

> <PUBCHEM_SHAPE_SELFOVERLAP>
398.824

> <PUBCHEM_SHAPE_VOLUME>
140.8

> <PUBCHEM_COORDINATE_TYPE>
2
5
10

$$$$
