6433715
  -OEChem-11232109113D

 24 23  0     0  0  0  0  0  0999 V2000
    4.3223    0.8938    0.1333 O   0  0  0  0  0  0  0  0  0  0  0  0
    3.5275   -1.2358    0.1105 O   0  0  0  0  0  0  0  0  0  0  0  0
   -2.8481    0.5628    0.1669 C   0  0  0  0  0  0  0  0  0  0  0  0
   -3.9350   -0.5097    0.0890 C   0  0  0  0  0  0  0  0  0  0  0  0
    0.8965   -0.4745   -0.2619 C   0  0  0  0  0  0  0  0  0  0  0  0
   -1.4927   -0.0497    0.3683 C   0  0  0  0  0  0  0  0  0  0  0  0
   -0.4581    0.1379   -0.4641 C   0  0  0  0  0  0  0  0  0  0  0  0
    1.9694    0.5968   -0.1041 C   0  0  0  0  0  0  0  0  0  0  0  0
   -5.3134    0.1074   -0.0882 C   0  0  0  0  0  0  0  0  0  0  0  0
    3.3317   -0.0290    0.0504 C   0  0  0  0  0  0  0  0  0  0  0  0
   -2.8687    1.1762   -0.7422 H   0  0  0  0  0  0  0  0  0  0  0  0
   -3.0521    1.2345    1.0095 H   0  0  0  0  0  0  0  0  0  0  0  0
   -3.7343   -1.1869   -0.7501 H   0  0  0  0  0  0  0  0  0  0  0  0
   -3.9309   -1.1184    1.0015 H   0  0  0  0  0  0  0  0  0  0  0  0
    1.1217   -1.1070   -1.1297 H   0  0  0  0  0  0  0  0  0  0  0  0
    0.8978   -1.1369    0.6130 H   0  0  0  0  0  0  0  0  0  0  0  0
   -1.3593   -0.6642    1.2554 H   0  0  0  0  0  0  0  0  0  0  0  0
   -0.5900    0.7545   -1.3500 H   0  0  0  0  0  0  0  0  0  0  0  0
    1.7698    1.2079    0.7833 H   0  0  0  0  0  0  0  0  0  0  0  0
    1.9905    1.2455   -0.9874 H   0  0  0  0  0  0  0  0  0  0  0  0
   -5.3648    0.6945   -1.0108 H   0  0  0  0  0  0  0  0  0  0  0  0
   -5.5600    0.7645    0.7519 H   0  0  0  0  0  0  0  0  0  0  0  0
   -6.0755   -0.6762   -0.1416 H   0  0  0  0  0  0  0  0  0  0  0  0
    5.2034    0.4763    0.2414 H   0  0  0  0  0  0  0  0  0  0  0  0
  1 10  1  0  0  0  0
  1 24  1  0  0  0  0
  2 10  2  0  0  0  0
  3  4  1  0  0  0  0
  3  6  1  0  0  0  0
  3 11  1  0  0  0  0
  3 12  1  0  0  0  0
  4  9  1  0  0  0  0
  4 13  1  0  0  0  0
  4 14  1  0  0  0  0
  5  7  1  0  0  0  0
  5  8  1  0  0  0  0
  5 15  1  0  0  0  0
  5 16  1  0  0  0  0
  6  7  2  0  0  0  0
  6 17  1  0  0  0  0
  7 18  1  0  0  0  0
  8 10  1  0  0  0  0
  8 19  1  0  0  0  0
  8 20  1  0  0  0  0
  9 21  1  0  0  0  0
  9 22  1  0  0  0  0
  9 23  1  0  0  0  0
M  END
> <PUBCHEM_COMPOUND_CID>
6433715

> <PUBCHEM_CONFORMER_RMSD>
0.6

> <PUBCHEM_CONFORMER_DIVERSEORDER>
1
23
49
22
90
6
85
59
50
2
26
74
11
45
66
4
70
14
80
35
52
65
7
20
9
84
76
17
33
44
87
5
34
73
83
21
8
24
58
28
77
62
54
18
60
75
81
10
56
13
27
43
63
46
31
89
40
67
68
29
86
36
12
32
53
39
47
42
82
38
51
72
55
16
15
41
61
88
69
19
30
64
48
25
78
57
79
71
3
37

> <PUBCHEM_MMFF94_PARTIAL_CHARGES>
11
1 -0.65
10 0.66
17 0.15
18 0.15
2 -0.57
24 0.5
3 0.14
5 0.14
6 -0.29
7 -0.29
8 0.06

> <PUBCHEM_EFFECTIVE_ROTOR_COUNT>
5

> <PUBCHEM_PHARMACOPHORE_FEATURES>
4
1 1 acceptor
1 2 acceptor
1 9 hydrophobe
3 1 2 10 anion

> <PUBCHEM_HEAVY_ATOM_COUNT>
10

> <PUBCHEM_ATOM_DEF_STEREO_COUNT>
0

> <PUBCHEM_ATOM_UDEF_STEREO_COUNT>
0

> <PUBCHEM_BOND_DEF_STEREO_COUNT>
1

> <PUBCHEM_BOND_UDEF_STEREO_COUNT>
0

> <PUBCHEM_ISOTOPIC_ATOM_COUNT>
0

> <PUBCHEM_COMPONENT_COUNT>
1

> <PUBCHEM_CACTVS_TAUTO_COUNT>
1

> <PUBCHEM_CONFORMER_ID>
00622BB300000001

> <PUBCHEM_MMFF94_ENERGY>
0.6916

> <PUBCHEM_FEATURE_SELFOVERLAP>
20.355

> <PUBCHEM_SHAPE_FINGERPRINT>
11062470 55 17894631461353831221
11401426 45 17749387079331637855
12932764 1 13398345716263768752
14123238 8 17418374705479515237
14325111 11 18411983546358019894
17834072 33 18261396714297838276
17834076 25 14996283613168515211
18342897 14 17846500339563327849
190213 19 17458348541407380873
20279233 1 17313109648353470018
20645477 70 18337953390043104750
20719005 15 18410856551060410983
20767249 13 15285355132726643761
22485316 2 18260265256914388963
23402539 116 18409441493287467541
42 15 18408324367249840963
42788 4 18411419510052192269
449060 50 18335420209783810652

> <PUBCHEM_SHAPE_MULTIPOLES>
194.06
10.33
0.9
0.65
4.22
0.07
-0.01
-0.15
0.43
-0.55
0.02
0.09
0
0

> <PUBCHEM_SHAPE_SELFOVERLAP>
355.674

> <PUBCHEM_SHAPE_VOLUME>
122.9

> <PUBCHEM_COORDINATE_TYPE>
2
5
10

$$$$
