6433547
  -OEChem-11232108483D

 32 31  0     1  0  0  0  0  0999 V2000
   -2.9087   -0.7096   -1.3970 O   0  0  0  0  0  0  0  0  0  0  0  0
   -2.2434   -0.4320   -0.1625 C   0  0  2  0  0  0  0  0  0  0  0  0
   -0.7199   -0.5868   -0.3741 C   0  0  0  0  0  0  0  0  0  0  0  0
    0.1067   -0.4401    0.9117 C   0  0  0  0  0  0  0  0  0  0  0  0
   -2.7340   -1.4600    0.8645 C   0  0  0  0  0  0  0  0  0  0  0  0
    1.5668   -0.6822    0.6452 C   0  0  0  0  0  0  0  0  0  0  0  0
   -2.5923    0.9565    0.3307 C   0  0  0  0  0  0  0  0  0  0  0  0
    2.5062    0.2410    0.3625 C   0  0  0  0  0  0  0  0  0  0  0  0
    3.9679   -0.0730    0.1420 C   0  0  0  0  0  0  0  0  0  0  0  0
    2.1408    1.6998    0.2849 C   0  0  0  0  0  0  0  0  0  0  0  0
    4.2809   -0.3653   -1.3182 C   0  0  0  0  0  0  0  0  0  0  0  0
   -3.3710    1.8516   -0.2898 C   0  0  0  0  0  0  0  0  0  0  0  0
   -0.3819    0.1469   -1.1194 H   0  0  0  0  0  0  0  0  0  0  0  0
   -0.5223   -1.5668   -0.8314 H   0  0  0  0  0  0  0  0  0  0  0  0
   -0.0485    0.5318    1.3877 H   0  0  0  0  0  0  0  0  0  0  0  0
   -0.1997   -1.1851    1.6545 H   0  0  0  0  0  0  0  0  0  0  0  0
   -2.4154   -2.4714    0.5863 H   0  0  0  0  0  0  0  0  0  0  0  0
   -3.8309   -1.4850    0.8871 H   0  0  0  0  0  0  0  0  0  0  0  0
   -2.3901   -1.2522    1.8828 H   0  0  0  0  0  0  0  0  0  0  0  0
    1.8769   -1.7253    0.6867 H   0  0  0  0  0  0  0  0  0  0  0  0
   -2.1894    1.2513    1.2978 H   0  0  0  0  0  0  0  0  0  0  0  0
    4.5898    0.7548    0.5025 H   0  0  0  0  0  0  0  0  0  0  0  0
    4.2490   -0.9466    0.7435 H   0  0  0  0  0  0  0  0  0  0  0  0
   -2.4889   -0.1767   -2.0940 H   0  0  0  0  0  0  0  0  0  0  0  0
    1.0695    1.8933    0.1957 H   0  0  0  0  0  0  0  0  0  0  0  0
    2.5128    2.2265    1.1699 H   0  0  0  0  0  0  0  0  0  0  0  0
    2.6040    2.1534   -0.5986 H   0  0  0  0  0  0  0  0  0  0  0  0
    3.7042   -1.2213   -1.6843 H   0  0  0  0  0  0  0  0  0  0  0  0
    4.0525    0.4966   -1.9536 H   0  0  0  0  0  0  0  0  0  0  0  0
    5.3438   -0.5992   -1.4364 H   0  0  0  0  0  0  0  0  0  0  0  0
   -3.5614    2.8171    0.1672 H   0  0  0  0  0  0  0  0  0  0  0  0
   -3.8318    1.6537   -1.2503 H   0  0  0  0  0  0  0  0  0  0  0  0
  1  2  1  0  0  0  0
  1 24  1  0  0  0  0
  2  3  1  0  0  0  0
  2  5  1  0  0  0  0
  2  7  1  0  0  0  0
  3  4  1  0  0  0  0
  3 13  1  0  0  0  0
  3 14  1  0  0  0  0
  4  6  1  0  0  0  0
  4 15  1  0  0  0  0
  4 16  1  0  0  0  0
  5 17  1  0  0  0  0
  5 18  1  0  0  0  0
  5 19  1  0  0  0  0
  6  8  2  0  0  0  0
  6 20  1  0  0  0  0
  7 12  2  0  0  0  0
  7 21  1  0  0  0  0
  8  9  1  0  0  0  0
  8 10  1  0  0  0  0
  9 11  1  0  0  0  0
  9 22  1  0  0  0  0
  9 23  1  0  0  0  0
 10 25  1  0  0  0  0
 10 26  1  0  0  0  0
 10 27  1  0  0  0  0
 11 28  1  0  0  0  0
 11 29  1  0  0  0  0
 11 30  1  0  0  0  0
 12 31  1  0  0  0  0
 12 32  1  0  0  0  0
M  END
> <PUBCHEM_COMPOUND_CID>
6433547

> <PUBCHEM_CONFORMER_RMSD>
0.6

> <PUBCHEM_CONFORMER_DIVERSEORDER>
19
66
115
139
86
83
132
22
116
32
118
42
50
63
146
100
33
80
126
137
103
40
81
95
108
124
15
97
91
128
84
111
23
110
99
102
93
27
98
87
20
78
57
123
35
113
117
88
56
64
106
38
141
107
43
1
82
94
112
133
96
25
46
105
135
53
59
6
90
109
138
74
104
70
62
39
28
75
142
60
143
69
130
21
79
3
65
12
122
24
85
134
55
92
127
37
45
11
129
121
114
4
101
36
71
72
61
2
120
77
26
49
48
89
67
34
54
7
18
136
73
144
41
68
9
125
140
13
58
29
119
44
8
131
76
10
30
52
47
31
51
5
14
145
17
16

> <PUBCHEM_MMFF94_PARTIAL_CHARGES>
14
1 -0.68
10 0.14
12 -0.3
2 0.42
20 0.15
21 0.15
24 0.4
31 0.15
32 0.15
4 0.14
6 -0.29
7 -0.29
8 -0.28
9 0.14

> <PUBCHEM_EFFECTIVE_ROTOR_COUNT>
5

> <PUBCHEM_PHARMACOPHORE_FEATURES>
5
1 1 acceptor
1 1 donor
1 10 hydrophobe
1 11 hydrophobe
1 12 hydrophobe

> <PUBCHEM_HEAVY_ATOM_COUNT>
12

> <PUBCHEM_ATOM_DEF_STEREO_COUNT>
0

> <PUBCHEM_ATOM_UDEF_STEREO_COUNT>
1

> <PUBCHEM_BOND_DEF_STEREO_COUNT>
1

> <PUBCHEM_BOND_UDEF_STEREO_COUNT>
0

> <PUBCHEM_ISOTOPIC_ATOM_COUNT>
0

> <PUBCHEM_COMPONENT_COUNT>
1

> <PUBCHEM_CACTVS_TAUTO_COUNT>
1

> <PUBCHEM_CONFORMER_ID>
00622B0B00000013

> <PUBCHEM_MMFF94_ENERGY>
17.2635

> <PUBCHEM_FEATURE_SELFOVERLAP>
25.373

> <PUBCHEM_SHAPE_FINGERPRINT>
10751810 167 18335990813300141166
10922523 26 18131354111400946196
12162725 195 18409441518250324921
12382932 28 8790895072614142672
12916754 54 17703507813141947599
12932764 1 17988918998271951498
13296908 3 17846497049839717256
13549 16 18201725007562869334
14123260 362 17967537839497626861
14144814 61 18334287669646376130
14250199 8 18267860764653832524
15775835 57 18187364277159726529
17041 50 18273216383130141696
17834072 8 18130793296236149268
18186145 218 18186518826096212808
19107657 9 17603310345052470092
1986462 14 18412267233100580190
20645477 70 17203333273892190782
20653085 51 18411422829603086968
20711983 171 18411132502746154325
20711985 327 12967127216253786354
21119208 17 18131632257625073512
21501925 9 10015571796981777282
22169311 21 16630516345846023054
22485316 2 15697998539822741102
23402539 116 18411975841851264206
23402655 69 18342460309790737360
3248919 1 18187911881158082763
58051976 100 18060419135856987199
581208 293 10592046864807012576
8030462 33 18335968827141247387
93112 12 18202561778497328420
9882013 296 11314322658425675020

> <PUBCHEM_SHAPE_MULTIPOLES>
241.09
7.82
1.56
1.09
4.15
0.6
-0.27
0.85
-1.9
-1.26
0.17
0.15
-0.22
0.32

> <PUBCHEM_SHAPE_SELFOVERLAP>
449.232

> <PUBCHEM_SHAPE_VOLUME>
152

> <PUBCHEM_COORDINATE_TYPE>
2
5
10

$$$$
