6434541
  -OEChem-11232109253D

 26 25  0     0  0  0  0  0  0999 V2000
    4.0166    0.9318    0.5339 O   0  0  0  0  0  0  0  0  0  0  0  0
   -0.4449   -0.0734   -0.1011 C   0  0  0  0  0  0  0  0  0  0  0  0
    2.4751   -0.3712   -0.7798 C   0  0  0  0  0  0  0  0  0  0  0  0
    0.5281   -0.8605    0.7274 C   0  0  0  0  0  0  0  0  0  0  0  0
    1.8284   -0.9935    0.4256 C   0  0  0  0  0  0  0  0  0  0  0  0
   -1.5775   -0.9312   -0.5853 C   0  0  0  0  0  0  0  0  0  0  0  0
   -3.3255    0.3767    0.6484 C   0  0  0  0  0  0  0  0  0  0  0  0
   -2.8611   -0.7302   -0.2510 C   0  0  0  0  0  0  0  0  0  0  0  0
    3.0182    1.0197   -0.4745 C   0  0  0  0  0  0  0  0  0  0  0  0
   -3.6573    1.6320   -0.1435 C   0  0  0  0  0  0  0  0  0  0  0  0
    0.0079    0.3872   -0.9829 H   0  0  0  0  0  0  0  0  0  0  0  0
   -0.7744    0.7738    0.5063 H   0  0  0  0  0  0  0  0  0  0  0  0
    1.8084   -0.3441   -1.6465 H   0  0  0  0  0  0  0  0  0  0  0  0
    3.3054   -1.0276   -1.0717 H   0  0  0  0  0  0  0  0  0  0  0  0
    0.1543   -1.3294    1.6345 H   0  0  0  0  0  0  0  0  0  0  0  0
    2.4649   -1.5652    1.0960 H   0  0  0  0  0  0  0  0  0  0  0  0
   -4.2317    0.0330    1.1630 H   0  0  0  0  0  0  0  0  0  0  0  0
   -2.6125    0.5994    1.4478 H   0  0  0  0  0  0  0  0  0  0  0  0
   -1.3369   -1.7500   -1.2590 H   0  0  0  0  0  0  0  0  0  0  0  0
   -3.6194   -1.3887   -0.6663 H   0  0  0  0  0  0  0  0  0  0  0  0
    3.4702    1.4615   -1.3681 H   0  0  0  0  0  0  0  0  0  0  0  0
    2.2306    1.6933   -0.1223 H   0  0  0  0  0  0  0  0  0  0  0  0
   -2.7716    2.0331   -0.6473 H   0  0  0  0  0  0  0  0  0  0  0  0
   -4.4205    1.4320   -0.9034 H   0  0  0  0  0  0  0  0  0  0  0  0
   -4.0440    2.4076    0.5253 H   0  0  0  0  0  0  0  0  0  0  0  0
    4.7268    0.3604    0.1952 H   0  0  0  0  0  0  0  0  0  0  0  0
  1  9  1  0  0  0  0
  1 26  1  0  0  0  0
  2  4  1  0  0  0  0
  2  6  1  0  0  0  0
  2 11  1  0  0  0  0
  2 12  1  0  0  0  0
  3  5  1  0  0  0  0
  3  9  1  0  0  0  0
  3 13  1  0  0  0  0
  3 14  1  0  0  0  0
  4  5  2  0  0  0  0
  4 15  1  0  0  0  0
  5 16  1  0  0  0  0
  6  8  2  0  0  0  0
  6 19  1  0  0  0  0
  7  8  1  0  0  0  0
  7 10  1  0  0  0  0
  7 17  1  0  0  0  0
  7 18  1  0  0  0  0
  8 20  1  0  0  0  0
  9 21  1  0  0  0  0
  9 22  1  0  0  0  0
 10 23  1  0  0  0  0
 10 24  1  0  0  0  0
 10 25  1  0  0  0  0
M  END
> <PUBCHEM_COMPOUND_CID>
6434541

> <PUBCHEM_CONFORMER_RMSD>
0.6

> <PUBCHEM_CONFORMER_DIVERSEORDER>
2
215
158
40
175
110
119
14
78
202
12
90
160
69
143
237
98
230
192
29
185
134
50
190
28
203
145
13
91
84
82
196
116
72
197
45
64
236
10
30
63
68
221
96
223
87
89
124
19
184
135
57
178
33
67
152
46
207
81
106
9
170
47
66
179
21
62
23
188
77
142
115
35
218
3
43
187
58
94
41
61
195
27
52
182
169
38
88
165
156
34
161
8
1
183
97
42
172
212
60
200
189
101
154
118
22
70
74
228
151
144
129
180
128
131
113
75
168
208
55
157
216
102
193
166
173
108
48
93
205
99
11
167
226
54
239
83
176
76
7
132
194
44
209
240
73
117
109
186
163
53
139
120
127
104
153
125
130
56
174
49
231
148
4
224
79
32
198
138
137
37
229
114
16
177
24
217
191
220
136
122
171
107
219
26
238
20
133
162
159
18
5
39
155
232
210
31
17
80
233
100
164
206
86
126
235
71
59
181
103
85
204
123
213
141
95
121
65
227
51
112
147
234
199
150
140
25
105
6
222
201
15
149
36
146
214
92
111
211
225

> <PUBCHEM_MMFF94_PARTIAL_CHARGES>
14
1 -0.68
15 0.15
16 0.15
19 0.15
2 0.28
20 0.15
26 0.4
3 0.14
4 -0.29
5 -0.29
6 -0.29
7 0.14
8 -0.29
9 0.28

> <PUBCHEM_EFFECTIVE_ROTOR_COUNT>
5

> <PUBCHEM_PHARMACOPHORE_FEATURES>
3
1 1 acceptor
1 1 donor
1 10 hydrophobe

> <PUBCHEM_HEAVY_ATOM_COUNT>
10

> <PUBCHEM_ATOM_DEF_STEREO_COUNT>
0

> <PUBCHEM_ATOM_UDEF_STEREO_COUNT>
0

> <PUBCHEM_BOND_DEF_STEREO_COUNT>
2

> <PUBCHEM_BOND_UDEF_STEREO_COUNT>
0

> <PUBCHEM_ISOTOPIC_ATOM_COUNT>
0

> <PUBCHEM_COMPONENT_COUNT>
1

> <PUBCHEM_CACTVS_TAUTO_COUNT>
1

> <PUBCHEM_CONFORMER_ID>
00622EED00000002

> <PUBCHEM_MMFF94_ENERGY>
5.2013

> <PUBCHEM_FEATURE_SELFOVERLAP>
15.223

> <PUBCHEM_SHAPE_FINGERPRINT>
10857977 72 14490479677231969759
11715629 250 18410291402110231541
11769659 78 9079122115654948509
12006461 19 8358273539779769760
12346645 44 18334574646312759827
12932764 1 17095518453116524291
14251710 61 9367339357997538309
14325111 11 18410294700803493647
14390081 3 18407760347891741527
15775835 57 18409732846040307061
177051 138 8286195046140582289
17834072 32 18123191200023291457
18186145 218 18200888308946710422
190213 19 18260832596355950871
20211469 26 11169910615205965515
20279233 1 15482663572383941926
20645477 70 16773529788868989758
20711983 171 18201438043496602773
20871999 31 17131542951184085103
21061003 4 15140681388675777127
21293036 1 15554449621403986846
22485316 2 10879724164976698516
23402539 116 18201711873726990484
3248919 1 18337941333911538783
57812782 119 11746931014242588959

> <PUBCHEM_SHAPE_MULTIPOLES>
199.93
7.36
1.4
0.87
0.23
0.35
0
3.45
0.24
-0.32
-0.01
0.13
-0.07
-0.16

> <PUBCHEM_SHAPE_SELFOVERLAP>
364.274

> <PUBCHEM_SHAPE_VOLUME>
127

> <PUBCHEM_COORDINATE_TYPE>
2
5
10

$$$$
