6434276
  -OEChem-11232108463D

 36 35  0     0  0  0  0  0  0999 V2000
    2.0267   -0.0395   -0.3000 O   0  0  0  0  0  0  0  0  0  0  0  0
    2.9731   -1.8699    0.7444 O   0  0  0  0  0  0  0  0  0  0  0  0
   -2.8399   -1.6115   -0.2189 C   0  0  0  0  0  0  0  0  0  0  0  0
    0.1045    2.1306    0.2428 C   0  0  0  0  0  0  0  0  0  0  0  0
   -1.8639   -0.9813   -1.2303 C   0  0  0  0  0  0  0  0  0  0  0  0
   -0.2435    0.6922   -0.1483 C   0  0  0  0  0  0  0  0  0  0  0  0
   -1.3780    0.3796   -0.8087 C   0  0  0  0  0  0  0  0  0  0  0  0
    0.7696   -0.3365    0.2938 C   0  0  0  0  0  0  0  0  0  0  0  0
   -4.0171   -0.6869    0.1019 C   0  0  0  0  0  0  0  0  0  0  0  0
   -2.0962   -1.9673    1.0706 C   0  0  0  0  0  0  0  0  0  0  0  0
   -0.3914    3.2041   -0.7344 C   0  0  0  0  0  0  0  0  0  0  0  0
   -0.3976    2.4381    1.6565 C   0  0  0  0  0  0  0  0  0  0  0  0
    3.0490   -0.8927    0.0120 C   0  0  0  0  0  0  0  0  0  0  0  0
    4.3048   -0.4590   -0.6814 C   0  0  0  0  0  0  0  0  0  0  0  0
   -3.2333   -2.5366   -0.6584 H   0  0  0  0  0  0  0  0  0  0  0  0
    1.1977    2.2290    0.2528 H   0  0  0  0  0  0  0  0  0  0  0  0
   -1.0317   -1.6638   -1.4324 H   0  0  0  0  0  0  0  0  0  0  0  0
   -2.3771   -0.8649   -2.1940 H   0  0  0  0  0  0  0  0  0  0  0  0
   -2.0658    1.1814   -1.0679 H   0  0  0  0  0  0  0  0  0  0  0  0
    0.4895   -1.3530    0.0107 H   0  0  0  0  0  0  0  0  0  0  0  0
    0.8653   -0.3060    1.3858 H   0  0  0  0  0  0  0  0  0  0  0  0
   -3.7063    0.2114    0.6454 H   0  0  0  0  0  0  0  0  0  0  0  0
   -4.7494   -1.2092    0.7274 H   0  0  0  0  0  0  0  0  0  0  0  0
   -4.5275   -0.3753   -0.8154 H   0  0  0  0  0  0  0  0  0  0  0  0
   -1.7417   -1.0844    1.6103 H   0  0  0  0  0  0  0  0  0  0  0  0
   -1.2463   -2.6265    0.8680 H   0  0  0  0  0  0  0  0  0  0  0  0
   -2.7656   -2.5081    1.7496 H   0  0  0  0  0  0  0  0  0  0  0  0
   -1.4802    3.3190   -0.7045 H   0  0  0  0  0  0  0  0  0  0  0  0
   -0.0945    2.9696   -1.7624 H   0  0  0  0  0  0  0  0  0  0  0  0
    0.0427    4.1776   -0.4795 H   0  0  0  0  0  0  0  0  0  0  0  0
   -0.1044    3.4489    1.9603 H   0  0  0  0  0  0  0  0  0  0  0  0
   -1.4901    2.3731    1.7151 H   0  0  0  0  0  0  0  0  0  0  0  0
    0.0204    1.7399    2.3893 H   0  0  0  0  0  0  0  0  0  0  0  0
    4.5797    0.5469   -0.3543 H   0  0  0  0  0  0  0  0  0  0  0  0
    4.1579   -0.4856   -1.7640 H   0  0  0  0  0  0  0  0  0  0  0  0
    5.1174   -1.1439   -0.4227 H   0  0  0  0  0  0  0  0  0  0  0  0
  1  8  1  0  0  0  0
  1 13  1  0  0  0  0
  2 13  2  0  0  0  0
  3  5  1  0  0  0  0
  3  9  1  0  0  0  0
  3 10  1  0  0  0  0
  3 15  1  0  0  0  0
  4  6  1  0  0  0  0
  4 11  1  0  0  0  0
  4 12  1  0  0  0  0
  4 16  1  0  0  0  0
  5  7  1  0  0  0  0
  5 17  1  0  0  0  0
  5 18  1  0  0  0  0
  6  7  2  0  0  0  0
  6  8  1  0  0  0  0
  7 19  1  0  0  0  0
  8 20  1  0  0  0  0
  8 21  1  0  0  0  0
  9 22  1  0  0  0  0
  9 23  1  0  0  0  0
  9 24  1  0  0  0  0
 10 25  1  0  0  0  0
 10 26  1  0  0  0  0
 10 27  1  0  0  0  0
 11 28  1  0  0  0  0
 11 29  1  0  0  0  0
 11 30  1  0  0  0  0
 12 31  1  0  0  0  0
 12 32  1  0  0  0  0
 12 33  1  0  0  0  0
 13 14  1  0  0  0  0
 14 34  1  0  0  0  0
 14 35  1  0  0  0  0
 14 36  1  0  0  0  0
M  END
> <PUBCHEM_COMPOUND_CID>
6434276

> <PUBCHEM_CONFORMER_RMSD>
0.6

> <PUBCHEM_CONFORMER_DIVERSEORDER>
1
76
111
193
191
106
230
14
163
118
211
122
160
25
164
178
116
223
172
63
233
68
210
71
57
229
4
10
108
69
28
238
92
199
207
158
187
239
45
171
78
138
148
149
196
205
100
115
154
231
132
161
137
173
91
16
26
119
38
219
222
142
102
99
206
126
150
127
159
48
213
20
73
79
153
36
74
3
105
236
104
169
228
144
201
190
49
151
87
85
22
60
90
117
82
23
81
67
198
140
218
89
55
175
130
240
226
200
15
9
221
96
88
32
168
212
156
64
128
58
37
70
166
8
237
97
77
197
195
53
103
177
2
42
5
225
186
107
155
30
241
131
80
141
11
31
84
62
232
52
47
208
29
7
184
194
120
202
50
72
235
162
109
136
39
180
192
224
209
220
157
143
134
93
110
44
33
13
75
61
234
113
59
121
174
147
185
66
152
181
125
24
170
146
217
204
86
98
139
40
243
214
34
165
112
216
215
135
133
12
21
179
54
188
227
6
101
123
51
189
176
95
124
35
65
129
43
18
46
17
19
83
182
203
94
114
27
56
167
41
242
183
145

> <PUBCHEM_MMFF94_PARTIAL_CHARGES>
10
1 -0.43
13 0.66
14 0.06
19 0.15
2 -0.57
4 0.14
5 0.14
6 -0.28
7 -0.29
8 0.42

> <PUBCHEM_EFFECTIVE_ROTOR_COUNT>
6

> <PUBCHEM_PHARMACOPHORE_FEATURES>
3
1 2 acceptor
3 3 9 10 hydrophobe
3 4 11 12 hydrophobe

> <PUBCHEM_HEAVY_ATOM_COUNT>
14

> <PUBCHEM_ATOM_DEF_STEREO_COUNT>
0

> <PUBCHEM_ATOM_UDEF_STEREO_COUNT>
0

> <PUBCHEM_BOND_DEF_STEREO_COUNT>
1

> <PUBCHEM_BOND_UDEF_STEREO_COUNT>
0

> <PUBCHEM_ISOTOPIC_ATOM_COUNT>
0

> <PUBCHEM_COMPONENT_COUNT>
1

> <PUBCHEM_CACTVS_TAUTO_COUNT>
1

> <PUBCHEM_CONFORMER_ID>
00622DE400000001

> <PUBCHEM_MMFF94_ENERGY>
16.1013

> <PUBCHEM_FEATURE_SELFOVERLAP>
15.223

> <PUBCHEM_SHAPE_FINGERPRINT>
10130415 120 18411139155940762991
12119455 92 10879718645553625371
12553582 1 18411128160518959078
13533116 47 17836654394164789307
15375462 189 18408888468191466994
15775835 57 8718831976654705647
17841504 4 18197218263998501523
18410436 195 18272650194481112009
18511873 20 18342461465353029571
19766037 51 18336270131929177006
20361792 2 18271799163711943975
20645476 183 17688583867003449612
20711985 344 18267002978111870241
20871998 184 18058729096132279836
20871999 31 18260257526094504517
21061003 4 18342457088169496687
21296965 67 18412542128250554021
21499 59 8502381018225610611
21524375 3 17191778291031172760
23419403 2 17630295654696623121
23500284 5 18337670806669159866
23557571 272 18271814484577596612
23598291 2 17914892269382539199
23598294 1 18199185092600131130
238078 22 18335434507677399390
25610 137 18409167736066339764
2748010 2 18268404967053829924
305870 269 17481980546961381937
458136 41 17254014450372485489
576247 118 18410002273538638161
58734987 51 18343305855612115377
7364860 26 17983574401288066601
81228 2 18269004089195197472

> <PUBCHEM_SHAPE_MULTIPOLES>
276.37
5.96
3.05
1.18
3
2.74
0.21
-5.1
-0.56
-0.33
0.53
-0.29
0.29
-0.01

> <PUBCHEM_SHAPE_SELFOVERLAP>
518.56

> <PUBCHEM_SHAPE_VOLUME>
173.1

> <PUBCHEM_COORDINATE_TYPE>
2
5
10

$$$$
