6435837
  -OEChem-11232109423D

 45 46  0     1  0  0  0  0  0999 V2000
    0.7782   -0.7332   -0.0085 O   0  0  0  0  0  0  0  0  0  0  0  0
   -0.5492   -2.6229   -0.0776 O   0  0  0  0  0  0  0  0  0  0  0  0
    3.1766   -0.6283    0.0229 C   0  0  1  0  0  0  0  0  0  0  0  0
    1.9547   -1.5433   -0.0174 C   0  0  0  0  0  0  0  0  0  0  0  0
    3.2560    0.2450   -1.2332 C   0  0  0  0  0  0  0  0  0  0  0  0
    3.1567    0.2529    1.2822 C   0  0  0  0  0  0  0  0  0  0  0  0
    4.5108    1.1237   -1.2187 C   0  0  0  0  0  0  0  0  0  0  0  0
    4.7892    1.7621    0.1190 C   0  0  0  0  0  0  0  0  0  0  0  0
    4.1594    1.3688    1.2393 C   0  0  0  0  0  0  0  0  0  0  0  0
    1.9204   -2.4624    1.2034 C   0  0  0  0  0  0  0  0  0  0  0  0
    1.9383   -2.3628   -1.3065 C   0  0  0  0  0  0  0  0  0  0  0  0
    5.8113    2.8601    0.1275 C   0  0  0  0  0  0  0  0  0  0  0  0
   -0.4023   -1.4114   -0.0417 C   0  0  0  0  0  0  0  0  0  0  0  0
   -1.4957   -0.4134   -0.0283 C   0  0  0  0  0  0  0  0  0  0  0  0
   -2.7701   -0.8294   -0.0438 C   0  0  0  0  0  0  0  0  0  0  0  0
   -3.9421    0.0634   -0.0224 C   0  0  0  0  0  0  0  0  0  0  0  0
   -3.7924    1.3885   -0.3982 C   0  0  0  0  0  0  0  0  0  0  0  0
   -5.1712   -0.4394    0.3724 C   0  0  0  0  0  0  0  0  0  0  0  0
   -4.9020    2.2339   -0.3786 C   0  0  0  0  0  0  0  0  0  0  0  0
   -6.2808    0.4057    0.3919 C   0  0  0  0  0  0  0  0  0  0  0  0
   -6.1460    1.7424    0.0165 C   0  0  0  0  0  0  0  0  0  0  0  0
    4.0850   -1.2484    0.0537 H   0  0  0  0  0  0  0  0  0  0  0  0
    2.3705    0.8904   -1.3034 H   0  0  0  0  0  0  0  0  0  0  0  0
    3.2871   -0.3520   -2.1502 H   0  0  0  0  0  0  0  0  0  0  0  0
    3.3792   -0.3628    2.1618 H   0  0  0  0  0  0  0  0  0  0  0  0
    2.1711    0.7033    1.4477 H   0  0  0  0  0  0  0  0  0  0  0  0
    4.3981    1.8999   -1.9852 H   0  0  0  0  0  0  0  0  0  0  0  0
    5.3814    0.5180   -1.5002 H   0  0  0  0  0  0  0  0  0  0  0  0
    4.3714    1.8664    2.1821 H   0  0  0  0  0  0  0  0  0  0  0  0
    2.9197   -2.8591    1.4187 H   0  0  0  0  0  0  0  0  0  0  0  0
    1.5620   -1.9377    2.0965 H   0  0  0  0  0  0  0  0  0  0  0  0
    1.2823   -3.3425    1.0818 H   0  0  0  0  0  0  0  0  0  0  0  0
    1.5531   -1.7900   -2.1579 H   0  0  0  0  0  0  0  0  0  0  0  0
    1.3260   -3.2677   -1.2432 H   0  0  0  0  0  0  0  0  0  0  0  0
    2.9448   -2.7203   -1.5554 H   0  0  0  0  0  0  0  0  0  0  0  0
    6.7720    2.4859   -0.2409 H   0  0  0  0  0  0  0  0  0  0  0  0
    5.9742    3.2653    1.1316 H   0  0  0  0  0  0  0  0  0  0  0  0
    5.4888    3.6846   -0.5166 H   0  0  0  0  0  0  0  0  0  0  0  0
   -1.2074    0.6303    0.0179 H   0  0  0  0  0  0  0  0  0  0  0  0
   -2.9966   -1.8933   -0.0629 H   0  0  0  0  0  0  0  0  0  0  0  0
   -2.8495    1.8087   -0.7334 H   0  0  0  0  0  0  0  0  0  0  0  0
   -5.2920   -1.4779    0.6690 H   0  0  0  0  0  0  0  0  0  0  0  0
   -4.7988    3.2734   -0.6757 H   0  0  0  0  0  0  0  0  0  0  0  0
   -7.2497    0.0232    0.6995 H   0  0  0  0  0  0  0  0  0  0  0  0
   -7.0102    2.4001    0.0306 H   0  0  0  0  0  0  0  0  0  0  0  0
  1  4  1  0  0  0  0
  1 13  1  0  0  0  0
  2 13  2  0  0  0  0
  3  4  1  0  0  0  0
  3  5  1  0  0  0  0
  3  6  1  0  0  0  0
  3 22  1  0  0  0  0
  4 10  1  0  0  0  0
  4 11  1  0  0  0  0
  5  7  1  0  0  0  0
  5 23  1  0  0  0  0
  5 24  1  0  0  0  0
  6  9  1  0  0  0  0
  6 25  1  0  0  0  0
  6 26  1  0  0  0  0
  7  8  1  0  0  0  0
  7 27  1  0  0  0  0
  7 28  1  0  0  0  0
  8  9  2  0  0  0  0
  8 12  1  0  0  0  0
  9 29  1  0  0  0  0
 10 30  1  0  0  0  0
 10 31  1  0  0  0  0
 10 32  1  0  0  0  0
 11 33  1  0  0  0  0
 11 34  1  0  0  0  0
 11 35  1  0  0  0  0
 12 36  1  0  0  0  0
 12 37  1  0  0  0  0
 12 38  1  0  0  0  0
 13 14  1  0  0  0  0
 14 15  2  0  0  0  0
 14 39  1  0  0  0  0
 15 16  1  0  0  0  0
 15 40  1  0  0  0  0
 16 17  2  0  0  0  0
 16 18  1  0  0  0  0
 17 19  1  0  0  0  0
 17 41  1  0  0  0  0
 18 20  2  0  0  0  0
 18 42  1  0  0  0  0
 19 21  2  0  0  0  0
 19 43  1  0  0  0  0
 20 21  1  0  0  0  0
 20 44  1  0  0  0  0
 21 45  1  0  0  0  0
M  END
> <PUBCHEM_COMPOUND_CID>
6435837

> <PUBCHEM_CONFORMER_RMSD>
0.8

> <PUBCHEM_CONFORMER_DIVERSEORDER>
1
20
29
23
12
26
4
30
19
25
22
17
27
2
6
16
10
14
24
8
5
18
21
3
28
13
9
11
15
7

> <PUBCHEM_MMFF94_PARTIAL_CHARGES>
25
1 -0.43
12 0.14
13 0.71
14 -0.14
15 -0.18
16 0.03
17 -0.15
18 -0.15
19 -0.15
2 -0.57
20 -0.15
21 -0.15
29 0.15
39 0.15
4 0.28
40 0.15
41 0.15
42 0.15
43 0.15
44 0.15
45 0.15
6 0.14
7 0.14
8 -0.28
9 -0.29

> <PUBCHEM_EFFECTIVE_ROTOR_COUNT>
5.8

> <PUBCHEM_PHARMACOPHORE_FEATURES>
4
1 2 acceptor
3 4 10 11 hydrophobe
6 16 17 18 19 20 21 rings
6 3 5 6 7 8 9 rings

> <PUBCHEM_HEAVY_ATOM_COUNT>
21

> <PUBCHEM_ATOM_DEF_STEREO_COUNT>
0

> <PUBCHEM_ATOM_UDEF_STEREO_COUNT>
1

> <PUBCHEM_BOND_DEF_STEREO_COUNT>
1

> <PUBCHEM_BOND_UDEF_STEREO_COUNT>
0

> <PUBCHEM_ISOTOPIC_ATOM_COUNT>
0

> <PUBCHEM_COMPONENT_COUNT>
1

> <PUBCHEM_CACTVS_TAUTO_COUNT>
1

> <PUBCHEM_CONFORMER_ID>
006233FD00000001

> <PUBCHEM_MMFF94_ENERGY>
55.886

> <PUBCHEM_FEATURE_SELFOVERLAP>
20.297

> <PUBCHEM_SHAPE_FINGERPRINT>
10 15 18186523228627660617
10498660 4 18202566206698320608
10670039 82 18337686208733451356
11069576 57 14619974603533067196
11796584 16 10447658962960098791
12403259 118 17896325894423679718
12596602 18 17094959961692545705
12633257 1 15719395087491066172
12730499 353 18272942621471790887
12760667 363 8574441919562273897
12769317 202 18201431484855078344
12892183 10 15430575304661637990
13878862 14 18045477769346993653
13955234 65 18190182286870931971
13965767 371 17895181230347994524
14123256 34 9079121084952916360
1420 369 8502657012628788381
14211702 104 9654988075962190589
14251764 38 18265615368836988745
14251764 75 17679597897883693844
14341114 328 16733267949365988516
14461889 52 17968387826969778331
14528608 73 18202560683591852389
14739800 52 18409437094629293344
14774955 27 18410851053771310653
14848178 5 8430320134052823493
14848178 96 18342176635294801801
14849402 71 18114180788211524114
15183329 4 11240008836937397043
15188451 53 12179837325516870165
15210252 30 18341332275269903128
15961568 22 18333733507138728453
17844677 252 18267592299823592635
17868525 174 17683793316073518562
18222031 100 10231762188593479838
19377110 9 17822012047229395371
20626108 58 10375880675431267314
21452121 103 18409726227733243170
2215653 11 9799689277891247257
22289505 5 17989209239825545720
22849339 104 14764045910123167045
23272321 79 18410572903531790583
23559900 14 18126565609524486175
245318 6 17533516756820134012
270888 7 18338796831552261384
2838139 119 18341887545852745676
2916195 48 18408323293977437473
3472631 163 18341614888317390828
34797466 226 18059862727713432879
350125 39 18263361400470487526
44062 13 10519983756215738441
465052 167 8142084277586184824
5104073 3 18187932712519309803
543368 44 18343302583232384897
5718773 13 9294749570847634228
59682541 52 17060072419309962956
633830 44 18340482245475696751
67856867 119 18262513680884124091
77188 2 17760926243544703210
7808743 9 18338231690885392304
8988823 20 13334746755520588119
90127 26 18263657177714856099
960060 61 13254793559787833144

> <PUBCHEM_SHAPE_MULTIPOLES>
420.43
15.53
2.93
1.1
13.92
0.11
-0.01
-13.73
0.66
-2.32
-0.04
-1.3
0.13
0.49

> <PUBCHEM_SHAPE_SELFOVERLAP>
877.754

> <PUBCHEM_SHAPE_VOLUME>
236.8

> <PUBCHEM_COORDINATE_TYPE>
2
5
10

$$$$
