6435861
  -OEChem-11232108483D

 36 35  0     0  0  0  0  0  0999 V2000
    0.0270   -0.0051   -0.1879 O   0  0  0  0  0  0  0  0  0  0  0  0
    1.2019    1.9327    0.2623 O   0  0  0  0  0  0  0  0  0  0  0  0
   -3.7033    0.3338    0.1072 C   0  0  0  0  0  0  0  0  0  0  0  0
   -4.8842   -0.6288   -0.0476 C   0  0  0  0  0  0  0  0  0  0  0  0
   -2.3463   -0.3258   -0.1336 C   0  0  0  0  0  0  0  0  0  0  0  0
   -6.2436    0.0371    0.1691 C   0  0  0  0  0  0  0  0  0  0  0  0
   -1.2029    0.6608    0.0635 C   0  0  0  0  0  0  0  0  0  0  0  0
   -7.3768   -0.9737    0.0763 C   0  0  0  0  0  0  0  0  0  0  0  0
    4.7952   -0.3912   -0.5836 C   0  0  0  0  0  0  0  0  0  0  0  0
    5.7173   -0.4568    0.6341 C   0  0  0  0  0  0  0  0  0  0  0  0
    1.1530    0.7538   -0.0510 C   0  0  0  0  0  0  0  0  0  0  0  0
    3.5579    0.4073   -0.2879 C   0  0  0  0  0  0  0  0  0  0  0  0
    2.3207   -0.1024   -0.3513 C   0  0  0  0  0  0  0  0  0  0  0  0
    6.9840   -1.2416    0.3303 C   0  0  0  0  0  0  0  0  0  0  0  0
   -3.7238    0.7626    1.1168 H   0  0  0  0  0  0  0  0  0  0  0  0
   -3.8280    1.1687   -0.5936 H   0  0  0  0  0  0  0  0  0  0  0  0
   -4.7656   -1.4526    0.6674 H   0  0  0  0  0  0  0  0  0  0  0  0
   -4.8565   -1.0740   -1.0499 H   0  0  0  0  0  0  0  0  0  0  0  0
   -2.2131   -1.1774    0.5451 H   0  0  0  0  0  0  0  0  0  0  0  0
   -2.3019   -0.7403   -1.1482 H   0  0  0  0  0  0  0  0  0  0  0  0
   -6.2693    0.5159    1.1547 H   0  0  0  0  0  0  0  0  0  0  0  0
   -6.3948    0.8238   -0.5788 H   0  0  0  0  0  0  0  0  0  0  0  0
   -1.2085    1.0414    1.0917 H   0  0  0  0  0  0  0  0  0  0  0  0
   -1.3099    1.5025   -0.6310 H   0  0  0  0  0  0  0  0  0  0  0  0
   -7.2702   -1.7540    0.8367 H   0  0  0  0  0  0  0  0  0  0  0  0
   -7.3955   -1.4524   -0.9079 H   0  0  0  0  0  0  0  0  0  0  0  0
   -8.3401   -0.4778    0.2315 H   0  0  0  0  0  0  0  0  0  0  0  0
    5.3203    0.0828   -1.4216 H   0  0  0  0  0  0  0  0  0  0  0  0
    4.5360   -1.4074   -0.9051 H   0  0  0  0  0  0  0  0  0  0  0  0
    5.9925    0.5557    0.9542 H   0  0  0  0  0  0  0  0  0  0  0  0
    5.1954   -0.9292    1.4752 H   0  0  0  0  0  0  0  0  0  0  0  0
    3.7105    1.4508   -0.0235 H   0  0  0  0  0  0  0  0  0  0  0  0
    2.1486   -1.1394   -0.6186 H   0  0  0  0  0  0  0  0  0  0  0  0
    7.5480   -0.7761   -0.4843 H   0  0  0  0  0  0  0  0  0  0  0  0
    7.6292   -1.2765    1.2137 H   0  0  0  0  0  0  0  0  0  0  0  0
    6.7480   -2.2707    0.0412 H   0  0  0  0  0  0  0  0  0  0  0  0
  1  7  1  0  0  0  0
  1 11  1  0  0  0  0
  2 11  2  0  0  0  0
  3  4  1  0  0  0  0
  3  5  1  0  0  0  0
  3 15  1  0  0  0  0
  3 16  1  0  0  0  0
  4  6  1  0  0  0  0
  4 17  1  0  0  0  0
  4 18  1  0  0  0  0
  5  7  1  0  0  0  0
  5 19  1  0  0  0  0
  5 20  1  0  0  0  0
  6  8  1  0  0  0  0
  6 21  1  0  0  0  0
  6 22  1  0  0  0  0
  7 23  1  0  0  0  0
  7 24  1  0  0  0  0
  8 25  1  0  0  0  0
  8 26  1  0  0  0  0
  8 27  1  0  0  0  0
  9 10  1  0  0  0  0
  9 12  1  0  0  0  0
  9 28  1  0  0  0  0
  9 29  1  0  0  0  0
 10 14  1  0  0  0  0
 10 30  1  0  0  0  0
 10 31  1  0  0  0  0
 11 13  1  0  0  0  0
 12 13  2  0  0  0  0
 12 32  1  0  0  0  0
 13 33  1  0  0  0  0
 14 34  1  0  0  0  0
 14 35  1  0  0  0  0
 14 36  1  0  0  0  0
M  END
> <PUBCHEM_COMPOUND_CID>
6435861

> <PUBCHEM_CONFORMER_RMSD>
0.8

> <PUBCHEM_CONFORMER_DIVERSEORDER>
1
127
329
147
202
119
67
7
377
87
381
248
29
78
345
245
385
297
270
73
15
268
378
39
352
269
379
64
124
27
299
20
415
200
319
286
133
300
276
36
388
292
227
264
396
168
190
18
146
215
394
210
86
298
349
2
121
8
187
410
112
150
26
402
51
393
69
83
144
395
238
31
23
419
84
244
321
343
17
259
183
3
164
262
369
43
370
182
173
372
188
194
315
126
35
236
174
42
178
347
207
71
221
122
413
117
103
411
77
406
131
198
309
353
155
326
304
390
4
136
80
414
5
383
28
404
46
165
351
273
380
318
132
12
400
254
162
161
70
213
58
346
41
333
76
403
6
14
59
405
37
218
79
250
204
313
257
239
175
229
366
40
324
384
302
75
13
263
33
243
260
392
249
267
340
52
382
253
96
123
63
125
109
62
135
320
247
11
337
344
82
338
93
206
129
421
231
199
16
60
354
291
224
246
104
128
317
92
222
95
241
205
118
228
365
81
373
21
143
9
308
293
47
148
296
54
287
303
88
391
179
348
355
94
258
10
295
368
334
274
91
152
25
141
101
170
107
100
38
203
417
120
211
374
172
252
195
209
214
48
416
225
219
140
331
19
242
399
34
145
158
339
289
275
226
255
55
271
102
181
105
409
191
336
418
282
420
114
361
407
314
74
142
85
97
65
106
98
177
235
134
387
68
44
212
307
137
233
251
163
350
272
363
323
327
322
401
208
24
116
49
330
115
328
72
265
325
180
153
138
108
149
53
306
277
397
167
169
285
111
230
266
223
61
166
362
284
189
66
412
151
237
89
356
160
256
110
301
176
45
192
154
220
185
156
216
201
197
130
186
360
99
278
196
50
159
294
312
281
316
139
389
193
332
234
22
311
386
341
90
364
342
30
57
32
232
56
375
217
157
283
367
335
279
113
240
358
408
305
310
290
398
357
184
280
288
171
376
359
261
371

> <PUBCHEM_MMFF94_PARTIAL_CHARGES>
9
1 -0.43
11 0.71
12 -0.29
13 -0.14
2 -0.57
32 0.15
33 0.15
7 0.28
9 0.14

> <PUBCHEM_EFFECTIVE_ROTOR_COUNT>
9

> <PUBCHEM_PHARMACOPHORE_FEATURES>
4
1 14 hydrophobe
1 2 acceptor
1 8 hydrophobe
4 3 4 5 6 hydrophobe

> <PUBCHEM_HEAVY_ATOM_COUNT>
14

> <PUBCHEM_ATOM_DEF_STEREO_COUNT>
0

> <PUBCHEM_ATOM_UDEF_STEREO_COUNT>
0

> <PUBCHEM_BOND_DEF_STEREO_COUNT>
1

> <PUBCHEM_BOND_UDEF_STEREO_COUNT>
0

> <PUBCHEM_ISOTOPIC_ATOM_COUNT>
0

> <PUBCHEM_COMPONENT_COUNT>
1

> <PUBCHEM_CACTVS_TAUTO_COUNT>
1

> <PUBCHEM_CONFORMER_ID>
0062341500000001

> <PUBCHEM_MMFF94_ENERGY>
4.4234

> <PUBCHEM_FEATURE_SELFOVERLAP>
20.298

> <PUBCHEM_SHAPE_FINGERPRINT>
100836 57 9655574119558246418
10354089 29 13758353376135547650
106641 1 16845567643110591490
12091667 2 17458064855435161829
12714333 28 9079115561624447510
13403585 85 15769781226073421681
13533116 47 14333138425209882910
13685833 64 18411138039106691922
13862211 1 18410293609697080166
13964095 4 17022899034975890351
14123256 10 10881399833245006782
14251752 14 17603860079481179573
14251764 18 18343023306540289152
14251764 46 18040152920538443211
14729087 3 13901914380428814483
15690457 1 18413384345536431887
15716309 27 18202280311984049327
17834072 8 13984665845595276402
17834076 25 8862943874885540775
18006028 8 18412825781039720032
20526848 3 10015579523723356034
20621476 38 18261672584828017962
20621476 66 9943517527280197954
20621476 8 17676485022057175029
20735858 18 17275385399893451142
20767249 213 11239997858299491807
21130983 4 11167941368142174387
21150785 3 14779269709049629442
21267235 1 18410579478425185236
221357 26 14273453678479754998
22224240 67 15769770256326163774
23035841 295 17967816055063599699
23218964 4 18334857221270414773
23402539 116 18408882914951695349
23521765 1 18341895190456539647
23559900 14 18116432725269074777
246663 6 17675929798422969067
28498 318 18260545593840843303
33532 11 18261390018855917114
42788 4 18411140251500223973
59682541 35 17632570578882982322
8209 1 17967814950597550127

> <PUBCHEM_SHAPE_MULTIPOLES>
276.37
20.17
1.15
0.69
8
0.23
0
-9.69
-1.92
-0.49
-0.1
-0.36
-0.03
-0.24

> <PUBCHEM_SHAPE_SELFOVERLAP>
507.282

> <PUBCHEM_SHAPE_VOLUME>
175.5

> <PUBCHEM_COORDINATE_TYPE>
2
5
10

$$$$
