6435834
  -OEChem-11232109013D

 37 37  0     0  0  0  0  0  0999 V2000
   -0.3434   -2.1120    0.6473 O   0  0  0  0  0  0  0  0  0  0  0  0
    0.2893   -3.6097   -1.0010 O   0  0  0  0  0  0  0  0  0  0  0  0
   -2.7458    0.5478   -0.1687 C   0  0  0  0  0  0  0  0  0  0  0  0
   -1.7460    0.4906    0.9908 C   0  0  0  0  0  0  0  0  0  0  0  0
   -4.1696    0.7856    0.3397 C   0  0  0  0  0  0  0  0  0  0  0  0
   -5.1738    0.8112   -0.8122 C   0  0  0  0  0  0  0  0  0  0  0  0
   -0.3196    0.2816    0.5186 C   0  0  0  0  0  0  0  0  0  0  0  0
   -0.0364   -1.0145   -0.2021 C   0  0  0  0  0  0  0  0  0  0  0  0
    0.6824    1.1611    0.7193 C   0  0  0  0  0  0  0  0  0  0  0  0
   -6.5938    1.0149   -0.3087 C   0  0  0  0  0  0  0  0  0  0  0  0
    2.0699    0.9922    0.2778 C   0  0  0  0  0  0  0  0  0  0  0  0
    2.9884    0.3788    1.1207 C   0  0  0  0  0  0  0  0  0  0  0  0
    2.4505    1.4467   -0.9787 C   0  0  0  0  0  0  0  0  0  0  0  0
    4.3086    0.2175    0.7005 C   0  0  0  0  0  0  0  0  0  0  0  0
    3.7707    1.2852   -1.3990 C   0  0  0  0  0  0  0  0  0  0  0  0
    4.6998    0.6706   -0.5593 C   0  0  0  0  0  0  0  0  0  0  0  0
   -0.1313   -3.3477    0.1149 C   0  0  0  0  0  0  0  0  0  0  0  0
   -2.4636    1.3476   -0.8645 H   0  0  0  0  0  0  0  0  0  0  0  0
   -2.7306   -0.3921   -0.7320 H   0  0  0  0  0  0  0  0  0  0  0  0
   -2.0186   -0.3160    1.6822 H   0  0  0  0  0  0  0  0  0  0  0  0
   -1.8117    1.4227    1.5666 H   0  0  0  0  0  0  0  0  0  0  0  0
   -4.2120    1.7354    0.8864 H   0  0  0  0  0  0  0  0  0  0  0  0
   -4.4431   -0.0070    1.0469 H   0  0  0  0  0  0  0  0  0  0  0  0
   -4.9191    1.6171   -1.5101 H   0  0  0  0  0  0  0  0  0  0  0  0
   -5.1241   -0.1303   -1.3716 H   0  0  0  0  0  0  0  0  0  0  0  0
   -0.6505   -1.0711   -1.1085 H   0  0  0  0  0  0  0  0  0  0  0  0
    1.0031   -1.1162   -0.5275 H   0  0  0  0  0  0  0  0  0  0  0  0
    0.4833    2.0919    1.2449 H   0  0  0  0  0  0  0  0  0  0  0  0
   -6.6866    1.9633    0.2301 H   0  0  0  0  0  0  0  0  0  0  0  0
   -6.8909    0.2057    0.3660 H   0  0  0  0  0  0  0  0  0  0  0  0
   -7.2951    1.0314   -1.1488 H   0  0  0  0  0  0  0  0  0  0  0  0
    2.6969    0.0207    2.1048 H   0  0  0  0  0  0  0  0  0  0  0  0
    1.7368    1.9272   -1.6429 H   0  0  0  0  0  0  0  0  0  0  0  0
    5.0320   -0.2613    1.3541 H   0  0  0  0  0  0  0  0  0  0  0  0
    4.0754    1.6378   -2.3800 H   0  0  0  0  0  0  0  0  0  0  0  0
    5.7277    0.5449   -0.8867 H   0  0  0  0  0  0  0  0  0  0  0  0
   -0.4055   -4.1036    0.8667 H   0  0  0  0  0  0  0  0  0  0  0  0
  1  8  1  0  0  0  0
  1 17  1  0  0  0  0
  2 17  2  0  0  0  0
  3  4  1  0  0  0  0
  3  5  1  0  0  0  0
  3 18  1  0  0  0  0
  3 19  1  0  0  0  0
  4  7  1  0  0  0  0
  4 20  1  0  0  0  0
  4 21  1  0  0  0  0
  5  6  1  0  0  0  0
  5 22  1  0  0  0  0
  5 23  1  0  0  0  0
  6 10  1  0  0  0  0
  6 24  1  0  0  0  0
  6 25  1  0  0  0  0
  7  8  1  0  0  0  0
  7  9  2  0  0  0  0
  8 26  1  0  0  0  0
  8 27  1  0  0  0  0
  9 11  1  0  0  0  0
  9 28  1  0  0  0  0
 10 29  1  0  0  0  0
 10 30  1  0  0  0  0
 10 31  1  0  0  0  0
 11 12  2  0  0  0  0
 11 13  1  0  0  0  0
 12 14  1  0  0  0  0
 12 32  1  0  0  0  0
 13 15  2  0  0  0  0
 13 33  1  0  0  0  0
 14 16  2  0  0  0  0
 14 34  1  0  0  0  0
 15 16  1  0  0  0  0
 15 35  1  0  0  0  0
 16 36  1  0  0  0  0
 17 37  1  0  0  0  0
M  END
> <PUBCHEM_COMPOUND_CID>
6435834

> <PUBCHEM_CONFORMER_RMSD>
0.8

> <PUBCHEM_CONFORMER_DIVERSEORDER>
1
45
108
87
122
102
110
60
103
120
65
85
98
99
81
44
9
77
88
112
7
118
123
38
66
78
6
34
111
113
114
70
101
14
47
89
25
64
31
95
115
96
59
100
91
76
125
126
36
109
94
61
8
79
22
68
116
30
3
28
93
13
121
75
62
107
46
18
33
127
37
29
73
54
39
12
40
2
53
21
83
56
42
92
5
52
16
19
117
106
24
4
48
86
51
43
84
17
80
128
63
74
32
35
97
50
58
15
27
71
90
41
49
124
72
67
10
11
105
20
26
57
104
55
119
82
23
69

> <PUBCHEM_MMFF94_PARTIAL_CHARGES>
20
1 -0.43
11 0.03
12 -0.15
13 -0.15
14 -0.15
15 -0.15
16 -0.15
17 0.66
2 -0.57
28 0.15
32 0.15
33 0.15
34 0.15
35 0.15
36 0.15
37 0.06
4 0.14
7 -0.28
8 0.42
9 -0.18

> <PUBCHEM_EFFECTIVE_ROTOR_COUNT>
8

> <PUBCHEM_PHARMACOPHORE_FEATURES>
4
1 10 hydrophobe
1 2 acceptor
5 3 4 5 6 7 hydrophobe
6 11 12 13 14 15 16 rings

> <PUBCHEM_HEAVY_ATOM_COUNT>
17

> <PUBCHEM_ATOM_DEF_STEREO_COUNT>
0

> <PUBCHEM_ATOM_UDEF_STEREO_COUNT>
0

> <PUBCHEM_BOND_DEF_STEREO_COUNT>
1

> <PUBCHEM_BOND_UDEF_STEREO_COUNT>
0

> <PUBCHEM_ISOTOPIC_ATOM_COUNT>
0

> <PUBCHEM_COMPONENT_COUNT>
1

> <PUBCHEM_CACTVS_TAUTO_COUNT>
1

> <PUBCHEM_CONFORMER_ID>
006233FA00000001

> <PUBCHEM_MMFF94_ENERGY>
29.764

> <PUBCHEM_FEATURE_SELFOVERLAP>
20.297

> <PUBCHEM_SHAPE_FINGERPRINT>
12403259 327 17772720919676384482
12500047 106 18341051934300805184
12516196 113 9439402428382350461
12592029 89 18186799136704276578
13052359 8 18339359789842500827
13836976 161 18335699420969721871
13968360 50 18337382760756684455
14115302 16 18411425050839858360
14252887 29 10737279113219950113
15048467 5 14634876353137828756
15502722 9 18266178336280995663
15527383 91 9511453429929945345
15852999 172 18130804372941072422
16752209 62 18196084662814844938
1813 80 7925631128686767531
187816 3 18131635590440847081
200 152 12463577265952683616
20567600 347 18272371945104124647
20645476 183 18261961863538265450
20645477 70 18263641771366361587
21054139 6 18200296823905873127
21344244 246 18200037222654925350
21521239 73 17988641861491869431
21524375 3 18334293171378091475
23402539 116 18342451569157828309
266924 1 17701828683172457177
298252 57 18334576862589562794
3060560 45 18409730655469894748
3071541 37 18338516344275259835
314194 84 10807929362945634485
33382 64 14549025385745275517
34934 24 17968379065231387748
3759504 43 18188212103920293363
42630746 31 18341328890587084375
59755656 215 18340207384304983919
633830 44 17988632039107566597
69474 34 8214137435091629303
74978 22 18267870673644414400
7832392 63 17897168129353533788
81228 2 17688578777346021235
81539 233 18334854974865615707
8272917 22 17313661560019440344
8863177 126 11598851018257202357
9999458 23 16225765190269645608

> <PUBCHEM_SHAPE_MULTIPOLES>
338.11
11.14
2.69
1.14
14.37
4.64
-0.09
-7.5
-2.36
-0.19
-0.73
-0.68
-0.15
-0.27

> <PUBCHEM_SHAPE_SELFOVERLAP>
673.927

> <PUBCHEM_SHAPE_VOLUME>
199.4

> <PUBCHEM_COORDINATE_TYPE>
2
5
10

$$$$
