6435882
  -OEChem-11232109433D

 34 33  0     0  0  0  0  0  0999 V2000
    0.2223    1.1643   -0.3792 O   0  0  0  0  0  0  0  0  0  0  0  0
   -0.6156    0.2120    1.5472 O   0  0  0  0  0  0  0  0  0  0  0  0
    2.4157    1.2719    0.6281 C   0  0  0  0  0  0  0  0  0  0  0  0
    1.0895    1.9891    0.4058 C   0  0  0  0  0  0  0  0  0  0  0  0
    3.1238    0.9980   -0.6687 C   0  0  0  0  0  0  0  0  0  0  0  0
    3.1234   -1.4883   -0.3466 C   0  0  0  0  0  0  0  0  0  0  0  0
   -1.4163   -0.4862   -0.6485 C   0  0  0  0  0  0  0  0  0  0  0  0
    3.4386   -0.2316   -1.1022 C   0  0  0  0  0  0  0  0  0  0  0  0
   -0.5828    0.3155    0.3285 C   0  0  0  0  0  0  0  0  0  0  0  0
   -4.1947    0.2812    0.2100 C   0  0  0  0  0  0  0  0  0  0  0  0
   -2.3443   -1.4058    0.0834 C   0  0  0  0  0  0  0  0  0  0  0  0
   -3.5836   -1.0643    0.4666 C   0  0  0  0  0  0  0  0  0  0  0  0
    4.2554   -1.8667    0.5960 C   0  0  0  0  0  0  0  0  0  0  0  0
   -4.9313    0.3107   -1.1202 C   0  0  0  0  0  0  0  0  0  0  0  0
    3.0646    1.9182    1.2318 H   0  0  0  0  0  0  0  0  0  0  0  0
    2.2476    0.3732    1.2256 H   0  0  0  0  0  0  0  0  0  0  0  0
    1.2435    2.9193   -0.1533 H   0  0  0  0  0  0  0  0  0  0  0  0
    0.6269    2.2700    1.3594 H   0  0  0  0  0  0  0  0  0  0  0  0
    3.4047    1.8540   -1.2769 H   0  0  0  0  0  0  0  0  0  0  0  0
    2.1733   -1.4296    0.1931 H   0  0  0  0  0  0  0  0  0  0  0  0
    2.9860   -2.2947   -1.0779 H   0  0  0  0  0  0  0  0  0  0  0  0
   -1.9515    0.2003   -1.3107 H   0  0  0  0  0  0  0  0  0  0  0  0
   -0.7417   -1.0890   -1.2669 H   0  0  0  0  0  0  0  0  0  0  0  0
    3.9695   -0.3344   -2.0449 H   0  0  0  0  0  0  0  0  0  0  0  0
   -3.4474    1.0813    0.2410 H   0  0  0  0  0  0  0  0  0  0  0  0
   -4.8990    0.5013    1.0211 H   0  0  0  0  0  0  0  0  0  0  0  0
   -1.9821   -2.4043    0.3131 H   0  0  0  0  0  0  0  0  0  0  0  0
   -4.1941   -1.8006    0.9823 H   0  0  0  0  0  0  0  0  0  0  0  0
    5.1985   -1.9926    0.0534 H   0  0  0  0  0  0  0  0  0  0  0  0
    4.4052   -1.1045    1.3679 H   0  0  0  0  0  0  0  0  0  0  0  0
    4.0271   -2.8128    1.0973 H   0  0  0  0  0  0  0  0  0  0  0  0
   -4.2577    0.1226   -1.9623 H   0  0  0  0  0  0  0  0  0  0  0  0
   -5.7266   -0.4422   -1.1477 H   0  0  0  0  0  0  0  0  0  0  0  0
   -5.3930    1.2917   -1.2723 H   0  0  0  0  0  0  0  0  0  0  0  0
  1  4  1  0  0  0  0
  1  9  1  0  0  0  0
  2  9  2  0  0  0  0
  3  4  1  0  0  0  0
  3  5  1  0  0  0  0
  3 15  1  0  0  0  0
  3 16  1  0  0  0  0
  4 17  1  0  0  0  0
  4 18  1  0  0  0  0
  5  8  2  0  0  0  0
  5 19  1  0  0  0  0
  6  8  1  0  0  0  0
  6 13  1  0  0  0  0
  6 20  1  0  0  0  0
  6 21  1  0  0  0  0
  7  9  1  0  0  0  0
  7 11  1  0  0  0  0
  7 22  1  0  0  0  0
  7 23  1  0  0  0  0
  8 24  1  0  0  0  0
 10 12  1  0  0  0  0
 10 14  1  0  0  0  0
 10 25  1  0  0  0  0
 10 26  1  0  0  0  0
 11 12  2  0  0  0  0
 11 27  1  0  0  0  0
 12 28  1  0  0  0  0
 13 29  1  0  0  0  0
 13 30  1  0  0  0  0
 13 31  1  0  0  0  0
 14 32  1  0  0  0  0
 14 33  1  0  0  0  0
 14 34  1  0  0  0  0
M  END
> <PUBCHEM_COMPOUND_CID>
6435882

> <PUBCHEM_CONFORMER_RMSD>
1

> <PUBCHEM_CONFORMER_DIVERSEORDER>
7
61
29
358
155
87
363
516
225
13
144
261
2
430
422
279
487
467
466
165
47
447
105
37
72
113
271
122
52
365
219
319
356
372
258
222
230
78
4
326
241
82
14
179
31
462
207
50
231
435
323
79
445
149
10
141
413
452
306
9
275
160
431
3
248
373
172
310
206
106
174
432
471
12
476
425
330
36
123
139
269
56
416
161
6
361
511
449
96
40
70
525
188
85
193
145
89
43
133
513
83
132
1
97
30
135
46
5
404
332
21
101
233

> <PUBCHEM_MMFF94_PARTIAL_CHARGES>
16
1 -0.43
10 0.14
11 -0.29
12 -0.29
19 0.15
2 -0.57
24 0.15
27 0.15
28 0.15
3 0.14
4 0.28
5 -0.29
6 0.14
7 0.2
8 -0.29
9 0.66

> <PUBCHEM_EFFECTIVE_ROTOR_COUNT>
8

> <PUBCHEM_PHARMACOPHORE_FEATURES>
3
1 13 hydrophobe
1 14 hydrophobe
1 2 acceptor

> <PUBCHEM_HEAVY_ATOM_COUNT>
14

> <PUBCHEM_ATOM_DEF_STEREO_COUNT>
0

> <PUBCHEM_ATOM_UDEF_STEREO_COUNT>
0

> <PUBCHEM_BOND_DEF_STEREO_COUNT>
2

> <PUBCHEM_BOND_UDEF_STEREO_COUNT>
0

> <PUBCHEM_ISOTOPIC_ATOM_COUNT>
0

> <PUBCHEM_COMPONENT_COUNT>
1

> <PUBCHEM_CACTVS_TAUTO_COUNT>
1

> <PUBCHEM_CONFORMER_ID>
0062342A00000007

> <PUBCHEM_MMFF94_ENERGY>
5.6329

> <PUBCHEM_FEATURE_SELFOVERLAP>
15.223

> <PUBCHEM_SHAPE_FINGERPRINT>
12616999 72 18041852825792129470
12670545 2 18272091573738778222
12815109 37 18411416203106832906
13549 16 18408323293819253357
13571099 22 18202285839802131441
14251717 144 18343304755789576102
14251731 8 18261392208903602974
14251764 38 13614245836880093123
17834072 8 18335701624583259717
1798214 20 18413390929921399502
18186145 218 18340773736104508131
20369508 70 18201997750591700192
20621476 91 12030917284829196501
20645477 70 18130233747585538150
20742870 56 18410856564129935694
22485316 2 18410857697996066174
23253445 4 17631997707665682298
23557571 272 17240752995938368444
23559900 14 18341893034678642216
251288 83 13614519666845988470
268830 7 16916798439012058329
32948 21 18187362095532540365
3323516 105 18186523232442813843
4990 188 17530965808370383889
53428517 54 18342183283972786582
58051976 100 18199187485160906175
59682541 52 18264746811155254871
633830 44 16877659089090592983
9882013 296 11239994551259134851

> <PUBCHEM_SHAPE_MULTIPOLES>
276.37
9.49
1.86
1.09
4.83
0.05
0.01
2.82
-1.7
-1.75
0.27
0.01
-0.05
0.1

> <PUBCHEM_SHAPE_SELFOVERLAP>
517.372

> <PUBCHEM_SHAPE_VOLUME>
171.5

> <PUBCHEM_COORDINATE_TYPE>
2
5
10

$$$$
