6435040
  -OEChem-11232109053D

 43 42  0     0  0  0  0  0  0999 V2000
    1.8512   -0.3790    0.5167 O   0  0  0  0  0  0  0  0  0  0  0  0
    0.6878    0.3070   -1.3498 O   0  0  0  0  0  0  0  0  0  0  0  0
    5.5841    0.2981    0.4079 C   0  0  0  0  0  0  0  0  0  0  0  0
    4.2128   -0.1817    0.9103 C   0  0  0  0  0  0  0  0  0  0  0  0
    3.0728    0.0903   -0.0639 C   0  0  0  0  0  0  0  0  0  0  0  0
    5.6441    1.8170    0.2400 C   0  0  0  0  0  0  0  0  0  0  0  0
    5.9178   -0.3824   -0.9217 C   0  0  0  0  0  0  0  0  0  0  0  0
   -2.6717   -1.9187    0.7951 C   0  0  0  0  0  0  0  0  0  0  0  0
   -4.0201   -1.2400    0.5184 C   0  0  0  0  0  0  0  0  0  0  0  0
   -1.5174   -1.3259    0.0130 C   0  0  0  0  0  0  0  0  0  0  0  0
   -0.4092   -0.7565    0.5240 C   0  0  0  0  0  0  0  0  0  0  0  0
   -4.0145    0.2249    0.8562 C   0  0  0  0  0  0  0  0  0  0  0  0
    0.7346   -0.2033   -0.2439 C   0  0  0  0  0  0  0  0  0  0  0  0
   -1.6598   -1.4371   -1.4866 C   0  0  0  0  0  0  0  0  0  0  0  0
   -4.3471    1.2616    0.0641 C   0  0  0  0  0  0  0  0  0  0  0  0
   -4.2819    2.6711    0.5894 C   0  0  0  0  0  0  0  0  0  0  0  0
   -4.7833    1.1545   -1.3692 C   0  0  0  0  0  0  0  0  0  0  0  0
    6.3361    0.0029    1.1502 H   0  0  0  0  0  0  0  0  0  0  0  0
    3.9855    0.2929    1.8736 H   0  0  0  0  0  0  0  0  0  0  0  0
    4.2520   -1.2583    1.1216 H   0  0  0  0  0  0  0  0  0  0  0  0
    3.2276   -0.4413   -1.0081 H   0  0  0  0  0  0  0  0  0  0  0  0
    2.9751    1.1630   -0.2599 H   0  0  0  0  0  0  0  0  0  0  0  0
    5.3534    2.3217    1.1672 H   0  0  0  0  0  0  0  0  0  0  0  0
    6.6643    2.1324   -0.0049 H   0  0  0  0  0  0  0  0  0  0  0  0
    4.9903    2.1719   -0.5628 H   0  0  0  0  0  0  0  0  0  0  0  0
    5.2959   -0.0193   -1.7460 H   0  0  0  0  0  0  0  0  0  0  0  0
    5.8010   -1.4689   -0.8496 H   0  0  0  0  0  0  0  0  0  0  0  0
    6.9601   -0.1814   -1.1942 H   0  0  0  0  0  0  0  0  0  0  0  0
   -2.4544   -1.8612    1.8698 H   0  0  0  0  0  0  0  0  0  0  0  0
   -2.7508   -2.9875    0.5596 H   0  0  0  0  0  0  0  0  0  0  0  0
   -4.7800   -1.7230    1.1456 H   0  0  0  0  0  0  0  0  0  0  0  0
   -4.3213   -1.4329   -0.5141 H   0  0  0  0  0  0  0  0  0  0  0  0
   -3.7199    0.4436    1.8823 H   0  0  0  0  0  0  0  0  0  0  0  0
   -0.3028   -0.7178    1.6063 H   0  0  0  0  0  0  0  0  0  0  0  0
   -2.1193   -0.5330   -1.8978 H   0  0  0  0  0  0  0  0  0  0  0  0
   -2.2966   -2.2892   -1.7510 H   0  0  0  0  0  0  0  0  0  0  0  0
   -0.7074   -1.6213   -1.9922 H   0  0  0  0  0  0  0  0  0  0  0  0
   -3.9531    2.7140    1.6331 H   0  0  0  0  0  0  0  0  0  0  0  0
   -3.5786    3.2644   -0.0042 H   0  0  0  0  0  0  0  0  0  0  0  0
   -5.2688    3.1423    0.5331 H   0  0  0  0  0  0  0  0  0  0  0  0
   -4.8396    0.1305   -1.7414 H   0  0  0  0  0  0  0  0  0  0  0  0
   -5.7774    1.5979   -1.4916 H   0  0  0  0  0  0  0  0  0  0  0  0
   -4.0843    1.6972   -2.0145 H   0  0  0  0  0  0  0  0  0  0  0  0
  1  5  1  0  0  0  0
  1 13  1  0  0  0  0
  2 13  2  0  0  0  0
  3  4  1  0  0  0  0
  3  6  1  0  0  0  0
  3  7  1  0  0  0  0
  3 18  1  0  0  0  0
  4  5  1  0  0  0  0
  4 19  1  0  0  0  0
  4 20  1  0  0  0  0
  5 21  1  0  0  0  0
  5 22  1  0  0  0  0
  6 23  1  0  0  0  0
  6 24  1  0  0  0  0
  6 25  1  0  0  0  0
  7 26  1  0  0  0  0
  7 27  1  0  0  0  0
  7 28  1  0  0  0  0
  8  9  1  0  0  0  0
  8 10  1  0  0  0  0
  8 29  1  0  0  0  0
  8 30  1  0  0  0  0
  9 12  1  0  0  0  0
  9 31  1  0  0  0  0
  9 32  1  0  0  0  0
 10 11  2  0  0  0  0
 10 14  1  0  0  0  0
 11 13  1  0  0  0  0
 11 34  1  0  0  0  0
 12 15  2  0  0  0  0
 12 33  1  0  0  0  0
 14 35  1  0  0  0  0
 14 36  1  0  0  0  0
 14 37  1  0  0  0  0
 15 16  1  0  0  0  0
 15 17  1  0  0  0  0
 16 38  1  0  0  0  0
 16 39  1  0  0  0  0
 16 40  1  0  0  0  0
 17 41  1  0  0  0  0
 17 42  1  0  0  0  0
 17 43  1  0  0  0  0
M  END
> <PUBCHEM_COMPOUND_CID>
6435040

> <PUBCHEM_CONFORMER_RMSD>
1

> <PUBCHEM_CONFORMER_DIVERSEORDER>
1
28
40
25
99
52
49
142
48
54
2
101
11
116
22
7
134
68
154
60
10
59
61
152
37
159
107
16
42
18
135
5
31
56
43
4
121
100
50
62
106
138
150
17
19
64
30
9
71
128
84
143
91
77
90
141
75
67
79
92
111
93
136
103
96
126
29
144
132
12
94
156
13
63
123
118
114
124
127
51
89
125
112
53
55
26
115
97
73
74
23
39
46
158
45
86
36
110
83
35
131
47
160
20
98
15
129
145
149
24
140
102
85
139
72
137
34
87
155
44
146
104
130
6
76
41
66
109
120
105
82
95
21
33
69
32
151
38
58
27
147
57
65
113
122
117
80
78
3
148
133
119
8
108
81
153
14
157
88
70

> <PUBCHEM_MMFF94_PARTIAL_CHARGES>
15
1 -0.43
10 -0.28
11 -0.14
12 -0.29
13 0.71
14 0.14
15 -0.28
16 0.14
17 0.14
2 -0.57
33 0.15
34 0.15
5 0.28
8 0.14
9 0.14

> <PUBCHEM_EFFECTIVE_ROTOR_COUNT>
8

> <PUBCHEM_PHARMACOPHORE_FEATURES>
5
1 14 hydrophobe
1 2 acceptor
3 15 16 17 hydrophobe
3 3 6 7 hydrophobe
4 8 9 10 12 hydrophobe

> <PUBCHEM_HEAVY_ATOM_COUNT>
17

> <PUBCHEM_ATOM_DEF_STEREO_COUNT>
0

> <PUBCHEM_ATOM_UDEF_STEREO_COUNT>
0

> <PUBCHEM_BOND_DEF_STEREO_COUNT>
1

> <PUBCHEM_BOND_UDEF_STEREO_COUNT>
0

> <PUBCHEM_ISOTOPIC_ATOM_COUNT>
0

> <PUBCHEM_COMPONENT_COUNT>
1

> <PUBCHEM_CACTVS_TAUTO_COUNT>
1

> <PUBCHEM_CONFORMER_ID>
006230E000000001

> <PUBCHEM_MMFF94_ENERGY>
24.4509

> <PUBCHEM_FEATURE_SELFOVERLAP>
25.394

> <PUBCHEM_SHAPE_FINGERPRINT>
10014705 185 18201718483117325474
11089746 13 18201709653049569944
12596602 18 17821444672784380873
12616971 3 12391515338203116203
13403585 85 18411698828670737472
13941219 33 11386640768327236405
14123255 352 18411697681872050193
1420 363 11386365933232405914
14251752 14 18411982434584060594
14251758 9 18412267216485057862
14251764 75 17481153298023095201
14573314 32 18272094868305559838
15209294 21 18040150704113746643
16079462 125 17774994718180560616
167882 2 17773600412355702583
17349148 13 14477244877058591738
17780758 139 12685098060213770093
17844677 252 18337399347962060072
19489759 90 18343020003879217795
200 152 12391511992296770718
20281389 69 18187643596110295008
20567600 75 18060146418508373774
20621476 66 18270970046609997793
20645477 56 17846502568836094051
20645477 70 16702035145000890758
21054139 6 11815892336846395844
21150785 3 14836116711074525664
23402539 116 13973970895570140323
23559900 14 18271814475972103774
25122255 55 10809609382368910416
270888 7 18123750860248022657
2838139 119 18130501955287471657
300161 21 17632291320388802018
441001 317 18411700980586379297
5104073 3 17967523597923923328
531348 171 17846496989620901047
542803 24 18409167749099025554
57483677 66 10303823077066567568
59682541 35 18263097574263866577
633830 44 18337667611909817286
7062679 6 18335426759350642920
90127 26 18339648935899295082

> <PUBCHEM_SHAPE_MULTIPOLES>
338.11
14.81
2.04
1.2
16.65
0.85
-0.36
6.82
0.25
-2.75
0.22
-0.54
-0.11
0.46

> <PUBCHEM_SHAPE_SELFOVERLAP>
638.982

> <PUBCHEM_SHAPE_VOLUME>
210.1

> <PUBCHEM_COORDINATE_TYPE>
2
5
10

$$$$
