6435839
  -OEChem-11232108513D

 40 40  0     0  0  0  0  0  0999 V2000
    0.5198   -0.2489   -0.0355 O   0  0  0  0  0  0  0  0  0  0  0  0
   -0.5459   -2.2903   -0.2210 O   0  0  0  0  0  0  0  0  0  0  0  0
    5.3572    0.6244    0.1179 C   0  0  0  0  0  0  0  0  0  0  0  0
    4.2727   -0.4459   -0.0237 C   0  0  0  0  0  0  0  0  0  0  0  0
    6.7799    0.0599    0.0667 C   0  0  0  0  0  0  0  0  0  0  0  0
    2.8764    0.1737    0.0105 C   0  0  0  0  0  0  0  0  0  0  0  0
    7.8639    1.1363    0.1341 C   0  0  0  0  0  0  0  0  0  0  0  0
    1.7886   -0.8864   -0.0877 C   0  0  0  0  0  0  0  0  0  0  0  0
    9.2540    0.5316    0.0074 C   0  0  0  0  0  0  0  0  0  0  0  0
   -0.5645   -1.0744   -0.1128 C   0  0  0  0  0  0  0  0  0  0  0  0
   -1.7833   -0.2365   -0.0443 C   0  0  0  0  0  0  0  0  0  0  0  0
   -4.2716   -0.0972   -0.0193 C   0  0  0  0  0  0  0  0  0  0  0  0
   -2.9895   -0.8200   -0.0892 C   0  0  0  0  0  0  0  0  0  0  0  0
   -4.3046    1.2559   -0.3153 C   0  0  0  0  0  0  0  0  0  0  0  0
   -5.4194   -0.7847    0.3412 C   0  0  0  0  0  0  0  0  0  0  0  0
   -5.5183    1.9403   -0.2489 C   0  0  0  0  0  0  0  0  0  0  0  0
   -6.6330   -0.1002    0.4075 C   0  0  0  0  0  0  0  0  0  0  0  0
   -6.6824    1.2622    0.1125 C   0  0  0  0  0  0  0  0  0  0  0  0
    5.2379    1.3634   -0.6842 H   0  0  0  0  0  0  0  0  0  0  0  0
    5.2191    1.1605    1.0650 H   0  0  0  0  0  0  0  0  0  0  0  0
    4.4118   -0.9881   -0.9667 H   0  0  0  0  0  0  0  0  0  0  0  0
    4.3744   -1.1763    0.7880 H   0  0  0  0  0  0  0  0  0  0  0  0
    6.9167   -0.6473    0.8941 H   0  0  0  0  0  0  0  0  0  0  0  0
    6.9004   -0.5129   -0.8615 H   0  0  0  0  0  0  0  0  0  0  0  0
    2.7592    0.8933   -0.8094 H   0  0  0  0  0  0  0  0  0  0  0  0
    2.7387    0.7481    0.9353 H   0  0  0  0  0  0  0  0  0  0  0  0
    7.7148    1.8647   -0.6713 H   0  0  0  0  0  0  0  0  0  0  0  0
    7.7877    1.6801    1.0826 H   0  0  0  0  0  0  0  0  0  0  0  0
    1.8836   -1.4348   -1.0323 H   0  0  0  0  0  0  0  0  0  0  0  0
    1.8760   -1.5923    0.7468 H   0  0  0  0  0  0  0  0  0  0  0  0
    9.4457   -0.1829    0.8143 H   0  0  0  0  0  0  0  0  0  0  0  0
   10.0147    1.3167    0.0609 H   0  0  0  0  0  0  0  0  0  0  0  0
    9.3702    0.0107   -0.9484 H   0  0  0  0  0  0  0  0  0  0  0  0
   -1.6388    0.8320    0.0646 H   0  0  0  0  0  0  0  0  0  0  0  0
   -3.0697   -1.9016   -0.1721 H   0  0  0  0  0  0  0  0  0  0  0  0
   -3.4290    1.8190   -0.6219 H   0  0  0  0  0  0  0  0  0  0  0  0
   -5.3969   -1.8457    0.5754 H   0  0  0  0  0  0  0  0  0  0  0  0
   -5.5585    3.0001   -0.4835 H   0  0  0  0  0  0  0  0  0  0  0  0
   -7.5397   -0.6279    0.6889 H   0  0  0  0  0  0  0  0  0  0  0  0
   -7.6275    1.7948    0.1629 H   0  0  0  0  0  0  0  0  0  0  0  0
  1  8  1  0  0  0  0
  1 10  1  0  0  0  0
  2 10  2  0  0  0  0
  3  4  1  0  0  0  0
  3  5  1  0  0  0  0
  3 19  1  0  0  0  0
  3 20  1  0  0  0  0
  4  6  1  0  0  0  0
  4 21  1  0  0  0  0
  4 22  1  0  0  0  0
  5  7  1  0  0  0  0
  5 23  1  0  0  0  0
  5 24  1  0  0  0  0
  6  8  1  0  0  0  0
  6 25  1  0  0  0  0
  6 26  1  0  0  0  0
  7  9  1  0  0  0  0
  7 27  1  0  0  0  0
  7 28  1  0  0  0  0
  8 29  1  0  0  0  0
  8 30  1  0  0  0  0
  9 31  1  0  0  0  0
  9 32  1  0  0  0  0
  9 33  1  0  0  0  0
 10 11  1  0  0  0  0
 11 13  2  0  0  0  0
 11 34  1  0  0  0  0
 12 13  1  0  0  0  0
 12 14  2  0  0  0  0
 12 15  1  0  0  0  0
 13 35  1  0  0  0  0
 14 16  1  0  0  0  0
 14 36  1  0  0  0  0
 15 17  2  0  0  0  0
 15 37  1  0  0  0  0
 16 18  2  0  0  0  0
 16 38  1  0  0  0  0
 17 18  1  0  0  0  0
 17 39  1  0  0  0  0
 18 40  1  0  0  0  0
M  END
> <PUBCHEM_COMPOUND_CID>
6435839

> <PUBCHEM_CONFORMER_RMSD>
0.8

> <PUBCHEM_CONFORMER_DIVERSEORDER>
1
333
17
311
331
183
365
348
349
37
451
32
9
313
58
176
11
344
306
3
211
51
227
4
338
149
392
404
271
28
346
195
232
397
12
222
173
179
228
63
16
414
445
30
182
412
7
239
437
10
67
159
18
466
400
116
468
71
90
142
258
146
369
186
19
62
267
124
85
39
210
343
334
35
42
425
87
416
131
120
324
429
424
33
269
341
2
363
64
439
26
213
430
305
233
266
314
389
216
257
47
426
69
291
370
303
261
361
121
128
238
234
351
104
410
169
91
193
45
41
315
224
221
147
82
220
65
282
391
286
456
24
59
178
196
270
417
406
433
54
194
201
143
356
132
381
8
36
202
252
68
191
240
93
374
27
203
122
88
115
294
151
137
293
6
422
189
379
382
38
467
199
408
367
113
158
70
246
111
427
375
72
209
278
43
61
307
243
204
362
48
157
274
97
403
164
256
110
292
207
276
237
153
60
299
388
447
114
458
421
165
366
283
50
444
251
229
263
405
22
446
226
318
264
312
442
245
106
174
462
322
77
198
297
262
56
419
148
180
260
14
431
332
463
296
200
155
197
376
185
89
308
380
277
284
21
399
15
184
105
74
330
407
13
453
79
92
326
390
339
249
457
100
31
455
448
345
434
298
279
387
280
402
301
141
44
352
78
335
259
368
350
396
76
287
20
108
5
177
461
371
225
29
432
386
152
23
236
359
241
340
231
248
96
435
98
34
415
372
129
95
123
401
53
212
358
409
316
443
357
49
73
288
385
373
190
393
273
66
215
353
281
423
145
214
217
166
83
161
383
144
25
127
109
449
452
138
310
328
99
46
436
255
181
268
192
289
107
438
208
347
459
247
354
342
321
140
420
205
285
133
377
94
57
75
440
135
163
175
254
272
384
168
360
244
55
160
139
40
126
235
398
454
172
167
418
450
319
411
364
394
275
323
355
250
150
460
117
119
103
465
156
413
219
102
188
223
441
81
428
134
464
395
295
327
52
309
171
118
329
162
154
80
125
130
112
86
265
325
300
101
253
187
84
218
336
290
317
136
378
170
206
337
320
304
230
242
302

> <PUBCHEM_MMFF94_PARTIAL_CHARGES>
19
1 -0.43
10 0.71
11 -0.14
12 0.03
13 -0.18
14 -0.15
15 -0.15
16 -0.15
17 -0.15
18 -0.15
2 -0.57
34 0.15
35 0.15
36 0.15
37 0.15
38 0.15
39 0.15
40 0.15
8 0.28

> <PUBCHEM_EFFECTIVE_ROTOR_COUNT>
9

> <PUBCHEM_PHARMACOPHORE_FEATURES>
4
1 2 acceptor
1 9 hydrophobe
5 3 4 5 6 7 hydrophobe
6 12 14 15 16 17 18 rings

> <PUBCHEM_HEAVY_ATOM_COUNT>
18

> <PUBCHEM_ATOM_DEF_STEREO_COUNT>
0

> <PUBCHEM_ATOM_UDEF_STEREO_COUNT>
0

> <PUBCHEM_BOND_DEF_STEREO_COUNT>
1

> <PUBCHEM_BOND_UDEF_STEREO_COUNT>
0

> <PUBCHEM_ISOTOPIC_ATOM_COUNT>
0

> <PUBCHEM_COMPONENT_COUNT>
1

> <PUBCHEM_CACTVS_TAUTO_COUNT>
1

> <PUBCHEM_CONFORMER_ID>
006233FF00000001

> <PUBCHEM_MMFF94_ENERGY>
28.2094

> <PUBCHEM_FEATURE_SELFOVERLAP>
20.297

> <PUBCHEM_SHAPE_FINGERPRINT>
10 15 18260548918140145379
106641 1 17821452374282863993
10670039 82 17417815010874246801
10730089 173 18341894086623843657
11315181 36 17821447980747604299
12091667 2 18411699907034543519
125118 31 18409729608616680464
13288520 33 9583515417867246443
13533116 47 17274824598162623838
13668630 136 9295293850503736792
13968360 50 15698006211003552620
14123256 10 16845575314212222136
14251764 18 18040432200860621266
14251764 46 18410292518769956327
14729087 3 18412260631994419464
14933364 13 18410575085027134288
15048467 5 18411136926530768612
15183329 4 15769775741115418846
155225 1 18342176636207782097
15690457 1 11602825717582222937
15716309 27 11891336456461418704
18006028 8 11169911692931832190
20281389 69 18334292068025371620
20554085 129 17703495646238693882
20621476 66 18409449211259302198
20621476 8 18342177765904909094
20735858 18 14129057015500657816
21150785 3 13758356674686151232
21304253 13 18335420197041951060
22224240 67 15502375647396492400
22288116 15 17345739893933766439
23035841 295 9655576313996449373
246663 6 12685090376696326576
28498 318 18059860546360812662
33532 11 9151185242624103576
33684 2 16917351437774024406
4073 2 18113343037587211026
5758199 1 17530964692248670970
59567204 34 18342176631380357281
59755656 520 18187078481420042667
636775 8 14189280600855850189
8209 1 11095887068876711082

> <PUBCHEM_SHAPE_MULTIPOLES>
358.69
26.42
1.54
0.64
42.63
0.01
0.01
12.01
1.9
-1.66
-0.11
-0.13
0.01
0.36

> <PUBCHEM_SHAPE_SELFOVERLAP>
710.75

> <PUBCHEM_SHAPE_VOLUME>
213.2

> <PUBCHEM_COORDINATE_TYPE>
2
5
10

$$$$
