6435869
  -OEChem-11232109103D

 23 22  0     0  0  0  0  0  0999 V2000
    3.5366    0.1899    1.0406 O   0  0  0  0  0  0  0  0  0  0  0  0
    0.9476   -0.3597   -0.0424 C   0  0  0  0  0  0  0  0  0  0  0  0
   -0.3207   -0.6320   -0.8579 C   0  0  0  0  0  0  0  0  0  0  0  0
    2.0489    0.2868   -0.8792 C   0  0  0  0  0  0  0  0  0  0  0  0
   -1.3568   -1.3367   -0.0305 C   0  0  0  0  0  0  0  0  0  0  0  0
   -2.3200   -0.7036    0.6551 C   0  0  0  0  0  0  0  0  0  0  0  0
   -2.4830    0.7872    0.6813 C   0  0  0  0  0  0  0  0  0  0  0  0
   -3.3950    1.2649   -0.4381 C   0  0  0  0  0  0  0  0  0  0  0  0
    3.3424    0.5032   -0.1289 C   0  0  0  0  0  0  0  0  0  0  0  0
    0.7172    0.2874    0.8134 H   0  0  0  0  0  0  0  0  0  0  0  0
    1.3221   -1.3022    0.3788 H   0  0  0  0  0  0  0  0  0  0  0  0
   -0.6996    0.3017   -1.2861 H   0  0  0  0  0  0  0  0  0  0  0  0
   -0.0786   -1.2729   -1.7149 H   0  0  0  0  0  0  0  0  0  0  0  0
    2.2812   -0.3404   -1.7469 H   0  0  0  0  0  0  0  0  0  0  0  0
    1.7164    1.2633   -1.2479 H   0  0  0  0  0  0  0  0  0  0  0  0
   -1.3073   -2.4214    0.0148 H   0  0  0  0  0  0  0  0  0  0  0  0
   -3.0354   -1.2948    1.2206 H   0  0  0  0  0  0  0  0  0  0  0  0
   -2.9153    1.0704    1.6484 H   0  0  0  0  0  0  0  0  0  0  0  0
   -1.5203    1.3057    0.6242 H   0  0  0  0  0  0  0  0  0  0  0  0
   -3.5231    2.3507   -0.3808 H   0  0  0  0  0  0  0  0  0  0  0  0
   -4.3868    0.8057   -0.3623 H   0  0  0  0  0  0  0  0  0  0  0  0
   -2.9861    1.0266   -1.4252 H   0  0  0  0  0  0  0  0  0  0  0  0
    4.1451    0.9792   -0.7182 H   0  0  0  0  0  0  0  0  0  0  0  0
  1  9  2  0  0  0  0
  2  3  1  0  0  0  0
  2  4  1  0  0  0  0
  2 10  1  0  0  0  0
  2 11  1  0  0  0  0
  3  5  1  0  0  0  0
  3 12  1  0  0  0  0
  3 13  1  0  0  0  0
  4  9  1  0  0  0  0
  4 14  1  0  0  0  0
  4 15  1  0  0  0  0
  5  6  2  0  0  0  0
  5 16  1  0  0  0  0
  6  7  1  0  0  0  0
  6 17  1  0  0  0  0
  7  8  1  0  0  0  0
  7 18  1  0  0  0  0
  7 19  1  0  0  0  0
  8 20  1  0  0  0  0
  8 21  1  0  0  0  0
  8 22  1  0  0  0  0
  9 23  1  0  0  0  0
M  END
> <PUBCHEM_COMPOUND_CID>
6435869

> <PUBCHEM_CONFORMER_RMSD>
0.6

> <PUBCHEM_CONFORMER_DIVERSEORDER>
1
40
34
84
60
19
82
16
83
15
58
45
17
81
32
69
4
27
66
29
71
50
43
78
25
75
68
77
22
2
79
11
56
37
72
76
80
28
10
65
61
62
24
18
54
38
70
14
26
49
55
8
51
53
48
44
46
67
74
36
23
5
73
21
12
59
42
63
31
30
33
57
13
6
9
41
35
39
7
64
52
3
20
47

> <PUBCHEM_MMFF94_PARTIAL_CHARGES>
10
1 -0.57
16 0.15
17 0.15
23 0.06
3 0.14
4 0.06
5 -0.29
6 -0.29
7 0.14
9 0.45

> <PUBCHEM_EFFECTIVE_ROTOR_COUNT>
5

> <PUBCHEM_PHARMACOPHORE_FEATURES>
3
1 1 acceptor
1 8 hydrophobe
4 2 3 4 5 hydrophobe

> <PUBCHEM_HEAVY_ATOM_COUNT>
9

> <PUBCHEM_ATOM_DEF_STEREO_COUNT>
0

> <PUBCHEM_ATOM_UDEF_STEREO_COUNT>
0

> <PUBCHEM_BOND_DEF_STEREO_COUNT>
1

> <PUBCHEM_BOND_UDEF_STEREO_COUNT>
0

> <PUBCHEM_ISOTOPIC_ATOM_COUNT>
0

> <PUBCHEM_COMPONENT_COUNT>
1

> <PUBCHEM_CACTVS_TAUTO_COUNT>
2

> <PUBCHEM_CONFORMER_ID>
0062341D00000001

> <PUBCHEM_MMFF94_ENERGY>
1.7069

> <PUBCHEM_FEATURE_SELFOVERLAP>
15.223

> <PUBCHEM_SHAPE_FINGERPRINT>
11127187 94 10375583751499358697
124424 183 17918274238606338450
12897270 3 11023828336065918167
12932764 1 17632026337490565150
14128692 85 9799399023368530027
14390081 3 17918000459694044467
17846911 113 18412544271761449273
18342897 55 15770059432158052364
20281407 28 11097858509978012141
20765181 27 17775850129193813024
20767249 442 18341890770903641057
20871999 31 13182733707272529185
21061003 4 13695589961828370007
21293036 1 16056875836393328255
23402539 116 18114455735022411735
3248919 1 18186805824163736342
528716 315 11167943562901922753

> <PUBCHEM_SHAPE_MULTIPOLES>
179.35
6.36
1.23
0.99
2.82
0.04
-0.02
-2.46
-1.05
-1.04
0.07
0.21
-0.03
0.16

> <PUBCHEM_SHAPE_SELFOVERLAP>
323.282

> <PUBCHEM_SHAPE_VOLUME>
114.7

> <PUBCHEM_COORDINATE_TYPE>
2
5
10

$$$$
