6435868
  -OEChem-11232109463D

 29 28  0     0  0  0  0  0  0999 V2000
    2.0980    2.7167   -0.7244 S   0  0  0  0  0  0  0  0  0  0  0  0
    0.4420   -1.0738    0.4836 C   0  0  0  0  0  0  0  0  0  0  0  0
   -0.4568   -0.8200   -0.7342 C   0  0  0  0  0  0  0  0  0  0  0  0
    1.9257   -0.9600    0.1847 C   0  0  0  0  0  0  0  0  0  0  0  0
   -1.9204   -0.9069   -0.3965 C   0  0  0  0  0  0  0  0  0  0  0  0
   -2.7434    0.0838   -0.0042 C   0  0  0  0  0  0  0  0  0  0  0  0
    2.6052   -2.2459   -0.1983 C   0  0  0  0  0  0  0  0  0  0  0  0
    2.5415    0.2349    0.2828 C   0  0  0  0  0  0  0  0  0  0  0  0
   -4.2020   -0.0731    0.3186 C   0  0  0  0  0  0  0  0  0  0  0  0
   -2.2274    1.4919    0.1315 C   0  0  0  0  0  0  0  0  0  0  0  0
    1.9375    1.5525    0.6562 C   0  0  0  0  0  0  0  0  0  0  0  0
    0.2413   -2.0829    0.8706 H   0  0  0  0  0  0  0  0  0  0  0  0
    0.1584   -0.4154    1.3130 H   0  0  0  0  0  0  0  0  0  0  0  0
   -0.2469   -1.5752   -1.5032 H   0  0  0  0  0  0  0  0  0  0  0  0
   -0.2148    0.1357   -1.2092 H   0  0  0  0  0  0  0  0  0  0  0  0
   -2.3414   -1.9089   -0.4698 H   0  0  0  0  0  0  0  0  0  0  0  0
    2.5320   -2.9739    0.6159 H   0  0  0  0  0  0  0  0  0  0  0  0
    3.6674   -2.0918   -0.4148 H   0  0  0  0  0  0  0  0  0  0  0  0
    2.1402   -2.6716   -1.0931 H   0  0  0  0  0  0  0  0  0  0  0  0
    3.6122    0.2585    0.0797 H   0  0  0  0  0  0  0  0  0  0  0  0
   -4.3984    0.2254    1.3533 H   0  0  0  0  0  0  0  0  0  0  0  0
   -4.8101    0.5474   -0.3473 H   0  0  0  0  0  0  0  0  0  0  0  0
   -4.5303   -1.1110    0.2015 H   0  0  0  0  0  0  0  0  0  0  0  0
   -2.7943    2.1597   -0.5266 H   0  0  0  0  0  0  0  0  0  0  0  0
   -1.1743    1.6221   -0.1140 H   0  0  0  0  0  0  0  0  0  0  0  0
   -2.3615    1.8374    1.1625 H   0  0  0  0  0  0  0  0  0  0  0  0
    2.4804    1.9614    1.5144 H   0  0  0  0  0  0  0  0  0  0  0  0
    0.8863    1.5020    0.9368 H   0  0  0  0  0  0  0  0  0  0  0  0
    1.2992    2.0597   -1.5782 H   0  0  0  0  0  0  0  0  0  0  0  0
  1 11  1  0  0  0  0
  1 29  1  0  0  0  0
  2  3  1  0  0  0  0
  2  4  1  0  0  0  0
  2 12  1  0  0  0  0
  2 13  1  0  0  0  0
  3  5  1  0  0  0  0
  3 14  1  0  0  0  0
  3 15  1  0  0  0  0
  4  7  1  0  0  0  0
  4  8  2  0  0  0  0
  5  6  2  0  0  0  0
  5 16  1  0  0  0  0
  6  9  1  0  0  0  0
  6 10  1  0  0  0  0
  7 17  1  0  0  0  0
  7 18  1  0  0  0  0
  7 19  1  0  0  0  0
  8 11  1  0  0  0  0
  8 20  1  0  0  0  0
  9 21  1  0  0  0  0
  9 22  1  0  0  0  0
  9 23  1  0  0  0  0
 10 24  1  0  0  0  0
 10 25  1  0  0  0  0
 10 26  1  0  0  0  0
 11 27  1  0  0  0  0
 11 28  1  0  0  0  0
M  END
> <PUBCHEM_COMPOUND_CID>
6435868

> <PUBCHEM_CONFORMER_RMSD>
0.6

> <PUBCHEM_CONFORMER_DIVERSEORDER>
3
37
8
47
10
41
33
60
75
19
13
46
34
21
73
20
36
30
66
72
79
29
57
77
15
61
6
63
26
2
62
42
49
74
67
52
12
43
64
53
78
27
68
9
4
50
45
76
25
35
65
17
11
56
58
14
70
22
39
18
44
54
48
71
40
1
28
32
7
69
31
24
51
23
38
16
5
59
55

> <PUBCHEM_MMFF94_PARTIAL_CHARGES>
14
1 -0.41
10 0.14
11 0.37
16 0.15
2 0.14
20 0.15
29 0.18
3 0.14
4 -0.28
5 -0.29
6 -0.28
7 0.14
8 -0.29
9 0.14

> <PUBCHEM_EFFECTIVE_ROTOR_COUNT>
4

> <PUBCHEM_PHARMACOPHORE_FEATURES>
3
1 7 hydrophobe
3 6 9 10 hydrophobe
4 2 3 4 5 hydrophobe

> <PUBCHEM_HEAVY_ATOM_COUNT>
11

> <PUBCHEM_ATOM_DEF_STEREO_COUNT>
0

> <PUBCHEM_ATOM_UDEF_STEREO_COUNT>
0

> <PUBCHEM_BOND_DEF_STEREO_COUNT>
1

> <PUBCHEM_BOND_UDEF_STEREO_COUNT>
0

> <PUBCHEM_ISOTOPIC_ATOM_COUNT>
0

> <PUBCHEM_COMPONENT_COUNT>
1

> <PUBCHEM_CACTVS_TAUTO_COUNT>
1

> <PUBCHEM_CONFORMER_ID>
0062341C00000003

> <PUBCHEM_MMFF94_ENERGY>
9.5978

> <PUBCHEM_FEATURE_SELFOVERLAP>
15.225

> <PUBCHEM_SHAPE_FINGERPRINT>
10857977 72 16443062807418164887
10980938 120 18339639039830518473
12696612 119 18408599262442214276
13618510 140 18264489666335046316
14250199 8 18410288116687044981
14648413 74 18409169930510090218
15775835 57 18200877408219726769
170605 34 18261670479823972914
19973954 147 18411698777083332001
20339313 130 18271248192744252566
20559304 39 18412825772264909384
20671657 1 18340492248195559252
21130352 189 18194677073319446620
21524375 3 17901937866539398552
23552423 10 18412256272333621215
2748010 2 18122607371916514876
449060 62 18341337789928100777
7364860 26 18343021099269730542

> <PUBCHEM_SHAPE_MULTIPOLES>
230.22
6
2.59
0.83
5.27
1.03
0.04
0.58
-0.43
-2.8
0.43
-0.15
0.12
-0.28

> <PUBCHEM_SHAPE_SELFOVERLAP>
414.394

> <PUBCHEM_SHAPE_VOLUME>
148.5

> <PUBCHEM_COORDINATE_TYPE>
2
5
10

$$$$
