6435835
  -OEChem-11232109433D

 49 49  0     0  0  0  0  0  0999 V2000
   -0.6866    0.3186   -1.0290 O   0  0  0  0  0  0  0  0  0  0  0  0
   -0.1789    1.6411   -2.8492 O   0  0  0  0  0  0  0  0  0  0  0  0
   -2.5768   -2.2495   -0.6661 C   0  0  0  0  0  0  0  0  0  0  0  0
   -1.2220   -2.9180   -0.9212 C   0  0  0  0  0  0  0  0  0  0  0  0
   -2.6689   -1.7140    0.7645 C   0  0  0  0  0  0  0  0  0  0  0  0
   -0.0566   -1.9714   -0.7038 C   0  0  0  0  0  0  0  0  0  0  0  0
   -4.0313   -1.0750    1.0319 C   0  0  0  0  0  0  0  0  0  0  0  0
   -0.8605    2.7954    0.4171 C   0  0  0  0  0  0  0  0  0  0  0  0
    0.0102   -0.7714   -1.6178 C   0  0  0  0  0  0  0  0  0  0  0  0
   -1.4477    2.5465   -0.9808 C   0  0  0  0  0  0  0  0  0  0  0  0
    0.9036   -2.1513    0.2252 C   0  0  0  0  0  0  0  0  0  0  0  0
   -4.1388   -0.5706    2.4622 C   0  0  0  0  0  0  0  0  0  0  0  0
   -1.6912    3.8472    1.1548 C   0  0  0  0  0  0  0  0  0  0  0  0
    0.5988    3.2510    0.3380 C   0  0  0  0  0  0  0  0  0  0  0  0
   -0.7055    1.4795   -1.7569 C   0  0  0  0  0  0  0  0  0  0  0  0
    2.0420   -1.2589    0.4626 C   0  0  0  0  0  0  0  0  0  0  0  0
    3.2428   -1.4643   -0.2168 C   0  0  0  0  0  0  0  0  0  0  0  0
    1.9245   -0.2040    1.3679 C   0  0  0  0  0  0  0  0  0  0  0  0
    4.3262   -0.6153    0.0092 C   0  0  0  0  0  0  0  0  0  0  0  0
    3.0079    0.6450    1.5937 C   0  0  0  0  0  0  0  0  0  0  0  0
    4.2088    0.4393    0.9143 C   0  0  0  0  0  0  0  0  0  0  0  0
   -2.7500   -1.4402   -1.3850 H   0  0  0  0  0  0  0  0  0  0  0  0
   -3.3688   -2.9900   -0.8324 H   0  0  0  0  0  0  0  0  0  0  0  0
   -1.1236   -3.7946   -0.2684 H   0  0  0  0  0  0  0  0  0  0  0  0
   -1.1896   -3.2952   -1.9504 H   0  0  0  0  0  0  0  0  0  0  0  0
   -1.8922   -0.9675    0.9602 H   0  0  0  0  0  0  0  0  0  0  0  0
   -2.5078   -2.5368    1.4723 H   0  0  0  0  0  0  0  0  0  0  0  0
   -4.1907   -0.2382    0.3418 H   0  0  0  0  0  0  0  0  0  0  0  0
   -4.8283   -1.8047    0.8480 H   0  0  0  0  0  0  0  0  0  0  0  0
   -0.8962    1.8663    0.9994 H   0  0  0  0  0  0  0  0  0  0  0  0
    1.0418   -0.4745   -1.8378 H   0  0  0  0  0  0  0  0  0  0  0  0
   -0.4514   -1.0218   -2.5817 H   0  0  0  0  0  0  0  0  0  0  0  0
   -2.4981    2.2390   -0.9147 H   0  0  0  0  0  0  0  0  0  0  0  0
   -1.4215    3.4694   -1.5730 H   0  0  0  0  0  0  0  0  0  0  0  0
    0.8619   -3.0182    0.8802 H   0  0  0  0  0  0  0  0  0  0  0  0
   -3.3758    0.1868    2.6688 H   0  0  0  0  0  0  0  0  0  0  0  0
   -5.1208   -0.1181    2.6316 H   0  0  0  0  0  0  0  0  0  0  0  0
   -4.0137   -1.3894    3.1778 H   0  0  0  0  0  0  0  0  0  0  0  0
   -1.6844    4.8053    0.6241 H   0  0  0  0  0  0  0  0  0  0  0  0
   -2.7319    3.5203    1.2518 H   0  0  0  0  0  0  0  0  0  0  0  0
   -1.2989    4.0154    2.1634 H   0  0  0  0  0  0  0  0  0  0  0  0
    0.6910    4.1865   -0.2244 H   0  0  0  0  0  0  0  0  0  0  0  0
    1.0057    3.4199    1.3408 H   0  0  0  0  0  0  0  0  0  0  0  0
    1.2273    2.5019   -0.1523 H   0  0  0  0  0  0  0  0  0  0  0  0
    3.3497   -2.2820   -0.9254 H   0  0  0  0  0  0  0  0  0  0  0  0
    0.9945   -0.0302    1.9039 H   0  0  0  0  0  0  0  0  0  0  0  0
    5.2611   -0.7751   -0.5198 H   0  0  0  0  0  0  0  0  0  0  0  0
    2.9162    1.4670    2.2977 H   0  0  0  0  0  0  0  0  0  0  0  0
    5.0521    1.1009    1.0899 H   0  0  0  0  0  0  0  0  0  0  0  0
  1  9  1  0  0  0  0
  1 15  1  0  0  0  0
  2 15  2  0  0  0  0
  3  4  1  0  0  0  0
  3  5  1  0  0  0  0
  3 22  1  0  0  0  0
  3 23  1  0  0  0  0
  4  6  1  0  0  0  0
  4 24  1  0  0  0  0
  4 25  1  0  0  0  0
  5  7  1  0  0  0  0
  5 26  1  0  0  0  0
  5 27  1  0  0  0  0
  6  9  1  0  0  0  0
  6 11  2  0  0  0  0
  7 12  1  0  0  0  0
  7 28  1  0  0  0  0
  7 29  1  0  0  0  0
  8 10  1  0  0  0  0
  8 13  1  0  0  0  0
  8 14  1  0  0  0  0
  8 30  1  0  0  0  0
  9 31  1  0  0  0  0
  9 32  1  0  0  0  0
 10 15  1  0  0  0  0
 10 33  1  0  0  0  0
 10 34  1  0  0  0  0
 11 16  1  0  0  0  0
 11 35  1  0  0  0  0
 12 36  1  0  0  0  0
 12 37  1  0  0  0  0
 12 38  1  0  0  0  0
 13 39  1  0  0  0  0
 13 40  1  0  0  0  0
 13 41  1  0  0  0  0
 14 42  1  0  0  0  0
 14 43  1  0  0  0  0
 14 44  1  0  0  0  0
 16 17  2  0  0  0  0
 16 18  1  0  0  0  0
 17 19  1  0  0  0  0
 17 45  1  0  0  0  0
 18 20  2  0  0  0  0
 18 46  1  0  0  0  0
 19 21  2  0  0  0  0
 19 47  1  0  0  0  0
 20 21  1  0  0  0  0
 20 48  1  0  0  0  0
 21 49  1  0  0  0  0
M  END
> <PUBCHEM_COMPOUND_CID>
6435835

> <PUBCHEM_CONFORMER_RMSD>
1.2

> <PUBCHEM_CONFORMER_DIVERSEORDER>
1
5
35
2
23
41
27
34
10
36
38
24
17
33
25
4
14
40
20
18
21
7
16
32
12
6
29
8
26
30
15
13
9
19
22
39
31
3
28
11
37
42

> <PUBCHEM_MMFF94_PARTIAL_CHARGES>
20
1 -0.43
10 0.06
11 -0.18
15 0.66
16 0.03
17 -0.15
18 -0.15
19 -0.15
2 -0.57
20 -0.15
21 -0.15
35 0.15
4 0.14
45 0.15
46 0.15
47 0.15
48 0.15
49 0.15
6 -0.28
9 0.42

> <PUBCHEM_EFFECTIVE_ROTOR_COUNT>
10

> <PUBCHEM_PHARMACOPHORE_FEATURES>
5
1 12 hydrophobe
1 2 acceptor
3 8 13 14 hydrophobe
5 3 4 5 6 7 hydrophobe
6 16 17 18 19 20 21 rings

> <PUBCHEM_HEAVY_ATOM_COUNT>
21

> <PUBCHEM_ATOM_DEF_STEREO_COUNT>
0

> <PUBCHEM_ATOM_UDEF_STEREO_COUNT>
0

> <PUBCHEM_BOND_DEF_STEREO_COUNT>
1

> <PUBCHEM_BOND_UDEF_STEREO_COUNT>
0

> <PUBCHEM_ISOTOPIC_ATOM_COUNT>
0

> <PUBCHEM_COMPONENT_COUNT>
1

> <PUBCHEM_CACTVS_TAUTO_COUNT>
1

> <PUBCHEM_CONFORMER_ID>
006233FB00000001

> <PUBCHEM_MMFF94_ENERGY>
31.7473

> <PUBCHEM_FEATURE_SELFOVERLAP>
25.373

> <PUBCHEM_SHAPE_FINGERPRINT>
10006869 2 18194108634688328779
10064457 181 17400943898193439796
10165383 225 17473004812631374276
10708813 3 17838057370273110361
10764073 3 17200541548827585679
12156800 1 17697081055987673108
13294875 104 17615992318404861749
133893 2 17175168432647584471
13764800 53 18264467530268417862
13965767 371 17983606047066468971
14955137 171 18193860338028362355
15163728 17 14547643346768345411
17859628 37 18201730586551352859
17980427 23 17917153926742598639
18981168 100 17985237765013148882
20510252 161 18189594168841172150
20600515 1 18042136490643543863
20723712 36 18268447874109549683
21330990 113 18200328644606633054
21427221 339 17983870148504451233
23419403 2 18115013221308174461
238 59 17329688939280889101
35225 105 17825650176201417459
539174 4 17544747293492917527
6287921 2 17336737285793602122
81228 2 18114743716051954839
9981440 41 17406775901631465474

> <PUBCHEM_SHAPE_MULTIPOLES>
420.43
6.49
4.32
2.07
2.17
3.72
-0.44
-2.64
4.44
-2.73
-0.29
-1.23
0.61
0.44

> <PUBCHEM_SHAPE_SELFOVERLAP>
833.952

> <PUBCHEM_SHAPE_VOLUME>
250.1

> <PUBCHEM_COORDINATE_TYPE>
2
5
10

$$$$
