6436969
  -OEChem-11232109273D

 37 37  0     1  0  0  0  0  0999 V2000
   -4.7441    0.2204   -0.8247 O   0  0  0  0  0  0  0  0  0  0  0  0
    2.3050    0.5634    0.1899 C   0  0  0  0  0  0  0  0  0  0  0  0
    0.8510    0.0328   -0.0001 C   0  0  1  0  0  0  0  0  0  0  0  0
    0.9764   -1.4968   -0.0265 C   0  0  0  0  0  0  0  0  0  0  0  0
    3.0961   -0.5693   -0.4413 C   0  0  0  0  0  0  0  0  0  0  0  0
   -0.1849    0.5127    1.0089 C   0  0  0  0  0  0  0  0  0  0  0  0
    2.3617   -1.6858   -0.5469 C   0  0  0  0  0  0  0  0  0  0  0  0
    2.4819    1.8983   -0.5467 C   0  0  0  0  0  0  0  0  0  0  0  0
    2.7136    0.7311    1.6620 C   0  0  0  0  0  0  0  0  0  0  0  0
    4.5272   -0.4368   -0.8326 C   0  0  0  0  0  0  0  0  0  0  0  0
   -1.5341   -0.0880    0.7321 C   0  0  0  0  0  0  0  0  0  0  0  0
   -2.5236    0.4471   -0.0066 C   0  0  0  0  0  0  0  0  0  0  0  0
   -2.4351    1.7502   -0.7508 C   0  0  0  0  0  0  0  0  0  0  0  0
   -3.8393   -0.2756   -0.1505 C   0  0  0  0  0  0  0  0  0  0  0  0
   -4.0517   -1.6037    0.5340 C   0  0  0  0  0  0  0  0  0  0  0  0
    0.5065    0.3395   -1.0017 H   0  0  0  0  0  0  0  0  0  0  0  0
    0.2391   -1.9451   -0.7000 H   0  0  0  0  0  0  0  0  0  0  0  0
    0.8826   -1.9536    0.9646 H   0  0  0  0  0  0  0  0  0  0  0  0
   -0.2346    1.6068    1.0141 H   0  0  0  0  0  0  0  0  0  0  0  0
    0.0965    0.2240    2.0289 H   0  0  0  0  0  0  0  0  0  0  0  0
    2.7273   -2.6274   -0.9316 H   0  0  0  0  0  0  0  0  0  0  0  0
    1.7983    2.6579   -0.1517 H   0  0  0  0  0  0  0  0  0  0  0  0
    3.5022    2.2832   -0.4371 H   0  0  0  0  0  0  0  0  0  0  0  0
    2.2828    1.7966   -1.6199 H   0  0  0  0  0  0  0  0  0  0  0  0
    3.7726    0.9998    1.7516 H   0  0  0  0  0  0  0  0  0  0  0  0
    2.1395    1.5282    2.1473 H   0  0  0  0  0  0  0  0  0  0  0  0
    2.5612   -0.1905    2.2353 H   0  0  0  0  0  0  0  0  0  0  0  0
    4.9314   -1.3848   -1.2032 H   0  0  0  0  0  0  0  0  0  0  0  0
    5.1357   -0.1292    0.0230 H   0  0  0  0  0  0  0  0  0  0  0  0
    4.6428    0.3055   -1.6281 H   0  0  0  0  0  0  0  0  0  0  0  0
   -1.6813   -1.0473    1.2218 H   0  0  0  0  0  0  0  0  0  0  0  0
   -3.1357    2.4769   -0.3266 H   0  0  0  0  0  0  0  0  0  0  0  0
   -2.6839    1.6035   -1.8076 H   0  0  0  0  0  0  0  0  0  0  0  0
   -1.4369    2.1944   -0.7223 H   0  0  0  0  0  0  0  0  0  0  0  0
   -5.0601   -1.9663    0.3098 H   0  0  0  0  0  0  0  0  0  0  0  0
   -3.9683   -1.4897    1.6178 H   0  0  0  0  0  0  0  0  0  0  0  0
   -3.3381   -2.3420    0.1592 H   0  0  0  0  0  0  0  0  0  0  0  0
  1 14  2  0  0  0  0
  2  3  1  0  0  0  0
  2  5  1  0  0  0  0
  2  8  1  0  0  0  0
  2  9  1  0  0  0  0
  3  4  1  0  0  0  0
  3  6  1  0  0  0  0
  3 16  1  0  0  0  0
  4  7  1  0  0  0  0
  4 17  1  0  0  0  0
  4 18  1  0  0  0  0
  5  7  2  0  0  0  0
  5 10  1  0  0  0  0
  6 11  1  0  0  0  0
  6 19  1  0  0  0  0
  6 20  1  0  0  0  0
  7 21  1  0  0  0  0
  8 22  1  0  0  0  0
  8 23  1  0  0  0  0
  8 24  1  0  0  0  0
  9 25  1  0  0  0  0
  9 26  1  0  0  0  0
  9 27  1  0  0  0  0
 10 28  1  0  0  0  0
 10 29  1  0  0  0  0
 10 30  1  0  0  0  0
 11 12  2  0  0  0  0
 11 31  1  0  0  0  0
 12 13  1  0  0  0  0
 12 14  1  0  0  0  0
 13 32  1  0  0  0  0
 13 33  1  0  0  0  0
 13 34  1  0  0  0  0
 14 15  1  0  0  0  0
 15 35  1  0  0  0  0
 15 36  1  0  0  0  0
 15 37  1  0  0  0  0
M  END
> <PUBCHEM_COMPOUND_CID>
6436969

> <PUBCHEM_CONFORMER_RMSD>
0.6

> <PUBCHEM_CONFORMER_DIVERSEORDER>
5
33
51
2
29
21
43
45
44
42
30
46
25
40
39
20
35
41
47
26
48
49
22
13
34
12
37
32
18
23
16
14
27
38
10
7
9
36
28
8
31
24
17
11
15
50
6
1
19
4
3

> <PUBCHEM_MMFF94_PARTIAL_CHARGES>
14
1 -0.57
10 0.14
11 -0.29
12 -0.12
13 0.14
14 0.49
15 0.06
2 0.14
21 0.15
31 0.15
4 0.14
5 -0.28
6 0.14
7 -0.29

> <PUBCHEM_EFFECTIVE_ROTOR_COUNT>
3.6

> <PUBCHEM_PHARMACOPHORE_FEATURES>
4
1 1 acceptor
1 13 hydrophobe
3 2 8 9 hydrophobe
5 2 3 4 5 7 rings

> <PUBCHEM_HEAVY_ATOM_COUNT>
15

> <PUBCHEM_ATOM_DEF_STEREO_COUNT>
0

> <PUBCHEM_ATOM_UDEF_STEREO_COUNT>
1

> <PUBCHEM_BOND_DEF_STEREO_COUNT>
1

> <PUBCHEM_BOND_UDEF_STEREO_COUNT>
0

> <PUBCHEM_ISOTOPIC_ATOM_COUNT>
0

> <PUBCHEM_COMPONENT_COUNT>
1

> <PUBCHEM_CACTVS_TAUTO_COUNT>
5

> <PUBCHEM_CONFORMER_ID>
0062386900000005

> <PUBCHEM_MMFF94_ENERGY>
32.2338

> <PUBCHEM_FEATURE_SELFOVERLAP>
20.297

> <PUBCHEM_SHAPE_FINGERPRINT>
11615757 297 17418095420857108419
11806522 49 17988647359382089698
12932764 1 17489582372644677177
13296908 3 17774997968975028497
13705890 14 18343302552660821936
14252887 29 16271933683978921350
14350574 20 18059583498466800830
15375462 6 18409168818039486765
15477762 27 18343025462993582582
17834074 16 18413389852032366135
18186145 218 18409731733801825347
19422 9 15626223541689829483
19433438 38 18335985272502373990
200 152 17989488502677574275
20279233 1 18411694396591386043
20361792 2 16271917195399200465
20645477 70 17632290160140821527
20671657 53 17845660244281782016
212847 35 16081358627460107101
21730867 7 18413670214211367146
221490 88 18338244863360620186
22485316 2 17704064119144672901
23402539 116 17675922109851240879
23402655 69 18337391543742823637
23557571 272 18410013191757364253
23559900 14 18335980895978328058
2871803 45 18409727357341251639
3060560 45 18409167710307261102
3268164 11 17385998477756642919
3286 77 17703790314610580352
4028521 119 17749102258596684893
42 15 11671787061227452677
53428517 58 18409450301616583827
57812782 119 18408882932152318945
58051976 378 18411136935173619847
581208 293 18342452672832119193
93112 12 18335422357087870149
9709674 26 18408609171137910155

> <PUBCHEM_SHAPE_MULTIPOLES>
302.82
8.63
1.72
1.1
5.4
0.03
-0.3
-1.27
1.79
-0.15
0.26
-0.4
0.21
0.86

> <PUBCHEM_SHAPE_SELFOVERLAP>
605.759

> <PUBCHEM_SHAPE_VOLUME>
182.6

> <PUBCHEM_COORDINATE_TYPE>
2
5
10

$$$$
