6436990
  -OEChem-11232108463D

 28 27  0     0  0  0  0  0  0999 V2000
   -0.3722   -0.7955   -0.2554 O   0  0  0  0  0  0  0  0  0  0  0  0
   -2.2689   -1.6354    0.7626 O   0  0  0  0  0  0  0  0  0  0  0  0
    1.7701   -1.8752   -0.4673 C   0  0  0  0  0  0  0  0  0  0  0  0
    0.3432   -1.9839    0.0566 C   0  0  0  0  0  0  0  0  0  0  0  0
    2.5115   -0.7347    0.1715 C   0  0  0  0  0  0  0  0  0  0  0  0
    3.7719    1.4320    0.1250 C   0  0  0  0  0  0  0  0  0  0  0  0
    3.0247    0.2986   -0.5126 C   0  0  0  0  0  0  0  0  0  0  0  0
    2.8333    2.5608    0.5218 C   0  0  0  0  0  0  0  0  0  0  0  0
   -1.6719   -0.7582    0.1588 C   0  0  0  0  0  0  0  0  0  0  0  0
   -2.2450    0.5413   -0.2528 C   0  0  0  0  0  0  0  0  0  0  0  0
   -3.5204    0.8313    0.0354 C   0  0  0  0  0  0  0  0  0  0  0  0
   -4.1761    2.1187   -0.3437 C   0  0  0  0  0  0  0  0  0  0  0  0
    2.3085   -2.8068   -0.2604 H   0  0  0  0  0  0  0  0  0  0  0  0
    1.7450   -1.7453   -1.5562 H   0  0  0  0  0  0  0  0  0  0  0  0
   -0.1508   -2.8402   -0.4176 H   0  0  0  0  0  0  0  0  0  0  0  0
    0.3474   -2.1365    1.1430 H   0  0  0  0  0  0  0  0  0  0  0  0
    2.6437   -0.7777    1.2500 H   0  0  0  0  0  0  0  0  0  0  0  0
    4.3130    1.0810    1.0119 H   0  0  0  0  0  0  0  0  0  0  0  0
    4.5283    1.8018   -0.5766 H   0  0  0  0  0  0  0  0  0  0  0  0
    2.8899    0.3483   -1.5901 H   0  0  0  0  0  0  0  0  0  0  0  0
    3.4004    3.3836    0.9688 H   0  0  0  0  0  0  0  0  0  0  0  0
    2.0927    2.2241    1.2552 H   0  0  0  0  0  0  0  0  0  0  0  0
    2.2968    2.9540   -0.3485 H   0  0  0  0  0  0  0  0  0  0  0  0
   -1.6117    1.2419   -0.7865 H   0  0  0  0  0  0  0  0  0  0  0  0
   -4.1423    0.1189    0.5710 H   0  0  0  0  0  0  0  0  0  0  0  0
   -5.0385    1.9218   -0.9878 H   0  0  0  0  0  0  0  0  0  0  0  0
   -3.4964    2.7891   -0.8792 H   0  0  0  0  0  0  0  0  0  0  0  0
   -4.5281    2.6358    0.5541 H   0  0  0  0  0  0  0  0  0  0  0  0
  1  4  1  0  0  0  0
  1  9  1  0  0  0  0
  2  9  2  0  0  0  0
  3  4  1  0  0  0  0
  3  5  1  0  0  0  0
  3 13  1  0  0  0  0
  3 14  1  0  0  0  0
  4 15  1  0  0  0  0
  4 16  1  0  0  0  0
  5  7  2  0  0  0  0
  5 17  1  0  0  0  0
  6  7  1  0  0  0  0
  6  8  1  0  0  0  0
  6 18  1  0  0  0  0
  6 19  1  0  0  0  0
  7 20  1  0  0  0  0
  8 21  1  0  0  0  0
  8 22  1  0  0  0  0
  8 23  1  0  0  0  0
  9 10  1  0  0  0  0
 10 11  2  0  0  0  0
 10 24  1  0  0  0  0
 11 12  1  0  0  0  0
 11 25  1  0  0  0  0
 12 26  1  0  0  0  0
 12 27  1  0  0  0  0
 12 28  1  0  0  0  0
M  END
> <PUBCHEM_COMPOUND_CID>
6436990

> <PUBCHEM_CONFORMER_RMSD>
0.6

> <PUBCHEM_CONFORMER_DIVERSEORDER>
1
261
30
291
9
285
6
272
78
40
12
202
142
49
264
179
114
199
58
85
19
303
101
190
66
262
316
213
83
7
312
252
277
175
247
35
275
15
60
283
271
240
259
289
62
141
230
54
122
268
47
128
165
37
48
239
116
21
23
95
317
181
97
207
103
313
145
61
297
160
224
41
74
183
77
258
233
235
20
149
59
286
39
198
109
218
4
245
280
260
314
104
43
18
173
82
69
210
292
72
106
221
3
158
91
282
2
171
70
33
46
197
25
293
51
234
31
172
98
161
50
242
113
269
251
244
225
79
76
208
322
217
203
111
152
231
300
185
154
253
263
80
222
90
96
157
270
281
168
64
307
169
34
267
315
151
29
228
170
11
237
299
135
276
139
127
32
155
209
159
265
226
16
38
148
13
308
214
44
28
301
102
167
27
94
63
310
248
305
273
306
125
206
279
204
246
110
65
146
22
10
26
236
184
212
320
284
194
156
205
150
288
164
257
112
321
105
123
92
88
201
121
84
42
296
56
250
318
309
52
99
75
87
232
68
8
229
107
45
192
174
162
298
180
57
188
126
195
89
120
227
193
53
302
36
129
163
71
131
287
86
191
196
304
220
278
177
274
118
295
319
5
178
100
176
223
219
132
254
153
24
117
311
130
133
93
255
81
136
119
138
290
134
215
140
124
266
55
17
14
189
182
147
216
294
187
256
73
115
238
137
166
241
143
200
243
144
67
186
108
249
211

> <PUBCHEM_MMFF94_PARTIAL_CHARGES>
15
1 -0.43
10 -0.14
11 -0.29
12 0.14
17 0.15
2 -0.57
20 0.15
24 0.15
25 0.15
3 0.14
4 0.28
5 -0.29
6 0.14
7 -0.29
9 0.71

> <PUBCHEM_EFFECTIVE_ROTOR_COUNT>
6

> <PUBCHEM_PHARMACOPHORE_FEATURES>
3
1 12 hydrophobe
1 2 acceptor
1 8 hydrophobe

> <PUBCHEM_HEAVY_ATOM_COUNT>
12

> <PUBCHEM_ATOM_DEF_STEREO_COUNT>
0

> <PUBCHEM_ATOM_UDEF_STEREO_COUNT>
0

> <PUBCHEM_BOND_DEF_STEREO_COUNT>
2

> <PUBCHEM_BOND_UDEF_STEREO_COUNT>
0

> <PUBCHEM_ISOTOPIC_ATOM_COUNT>
0

> <PUBCHEM_COMPONENT_COUNT>
1

> <PUBCHEM_CACTVS_TAUTO_COUNT>
1

> <PUBCHEM_CONFORMER_ID>
0062387E00000001

> <PUBCHEM_MMFF94_ENERGY>
7.0342

> <PUBCHEM_FEATURE_SELFOVERLAP>
15.223

> <PUBCHEM_SHAPE_FINGERPRINT>
10608611 8 18409450271546563967
12006461 19 9079113366880335149
122479 349 18335422348513870163
13618510 140 18341613741434547936
13897977 150 18411135839957037117
14123255 52 18340766043791966924
14252887 29 12829493606411094754
17834072 32 18337675342518998044
1798214 55 18412824720161880920
18186145 218 18059591225318584138
20281475 54 9511170880852915791
20304884 271 18410855481698086746
20449540 30 18201726192878949723
20606313 2 18268990895298198750
20621476 13 18411974763029522204
20671657 1 18338517409100387382
20767249 462 18408318908473125388
22096605 113 18413385415146409687
22959321 54 18341333292891704585
23503958 25 18191605222520503776
23590187 32 18264492965228651876
43658 37 18271233993423980005
8050 44 18410852183110468924
8199 26 18411139173041738324
94968 8 9871458838152352956

> <PUBCHEM_SHAPE_MULTIPOLES>
235.22
7.81
2.79
0.73
3.08
0.7
-0.01
6.05
0.26
-0.87
-0.23
-0.03
-0.01
0.87

> <PUBCHEM_SHAPE_SELFOVERLAP>
437.982

> <PUBCHEM_SHAPE_VOLUME>
147

> <PUBCHEM_COORDINATE_TYPE>
2
5
10

$$$$
