6436780
  -OEChem-11232109153D

 34 34  0     0  0  0  0  0  0999 V2000
   -1.2426    1.0701   -0.0881 O   0  0  0  0  0  0  0  0  0  0  0  0
    0.4629    0.0022    1.0472 O   0  0  0  0  0  0  0  0  0  0  0  0
   -4.6060   -0.5698    0.2503 C   0  0  0  0  0  0  0  0  0  0  0  0
   -3.5516    0.4438   -0.1886 C   0  0  0  0  0  0  0  0  0  0  0  0
   -5.9745   -0.2424   -0.3464 C   0  0  0  0  0  0  0  0  0  0  0  0
   -2.1767    0.1012    0.3672 C   0  0  0  0  0  0  0  0  0  0  0  0
   -7.0198   -1.2685    0.0610 C   0  0  0  0  0  0  0  0  0  0  0  0
    0.0455    0.8975    0.3298 C   0  0  0  0  0  0  0  0  0  0  0  0
    2.8533    0.4968   -0.3110 C   0  0  0  0  0  0  0  0  0  0  0  0
    0.8619    1.9938   -0.2390 C   0  0  0  0  0  0  0  0  0  0  0  0
    2.1539    1.7762   -0.5233 C   0  0  0  0  0  0  0  0  0  0  0  0
    3.9486    0.4549    0.5366 C   0  0  0  0  0  0  0  0  0  0  0  0
    2.4022   -0.6396   -0.9624 C   0  0  0  0  0  0  0  0  0  0  0  0
    4.6106   -0.7563    0.7381 C   0  0  0  0  0  0  0  0  0  0  0  0
    3.0640   -1.8508   -0.7608 C   0  0  0  0  0  0  0  0  0  0  0  0
    4.1683   -1.9090    0.0894 C   0  0  0  0  0  0  0  0  0  0  0  0
   -4.6738   -0.5809    1.3449 H   0  0  0  0  0  0  0  0  0  0  0  0
   -4.3010   -1.5754   -0.0645 H   0  0  0  0  0  0  0  0  0  0  0  0
   -3.8355    1.4526    0.1364 H   0  0  0  0  0  0  0  0  0  0  0  0
   -3.4979    0.4858   -1.2838 H   0  0  0  0  0  0  0  0  0  0  0  0
   -6.2964    0.7518   -0.0157 H   0  0  0  0  0  0  0  0  0  0  0  0
   -5.9074   -0.2147   -1.4402 H   0  0  0  0  0  0  0  0  0  0  0  0
   -1.8683   -0.8924    0.0207 H   0  0  0  0  0  0  0  0  0  0  0  0
   -2.2033    0.1060    1.4633 H   0  0  0  0  0  0  0  0  0  0  0  0
   -6.7433   -2.2694   -0.2856 H   0  0  0  0  0  0  0  0  0  0  0  0
   -7.1344   -1.3009    1.1492 H   0  0  0  0  0  0  0  0  0  0  0  0
   -7.9908   -1.0143   -0.3755 H   0  0  0  0  0  0  0  0  0  0  0  0
    0.3922    2.9490   -0.4429 H   0  0  0  0  0  0  0  0  0  0  0  0
    2.7562    2.5863   -0.9255 H   0  0  0  0  0  0  0  0  0  0  0  0
    4.3021    1.3462    1.0481 H   0  0  0  0  0  0  0  0  0  0  0  0
    1.5541   -0.6126   -1.6417 H   0  0  0  0  0  0  0  0  0  0  0  0
    5.4703   -0.8017    1.4001 H   0  0  0  0  0  0  0  0  0  0  0  0
    2.7219   -2.7478   -1.2687 H   0  0  0  0  0  0  0  0  0  0  0  0
    4.6841   -2.8519    0.2456 H   0  0  0  0  0  0  0  0  0  0  0  0
  1  6  1  0  0  0  0
  1  8  1  0  0  0  0
  2  8  2  0  0  0  0
  3  4  1  0  0  0  0
  3  5  1  0  0  0  0
  3 17  1  0  0  0  0
  3 18  1  0  0  0  0
  4  6  1  0  0  0  0
  4 19  1  0  0  0  0
  4 20  1  0  0  0  0
  5  7  1  0  0  0  0
  5 21  1  0  0  0  0
  5 22  1  0  0  0  0
  6 23  1  0  0  0  0
  6 24  1  0  0  0  0
  7 25  1  0  0  0  0
  7 26  1  0  0  0  0
  7 27  1  0  0  0  0
  8 10  1  0  0  0  0
  9 11  1  0  0  0  0
  9 12  2  0  0  0  0
  9 13  1  0  0  0  0
 10 11  2  0  0  0  0
 10 28  1  0  0  0  0
 11 29  1  0  0  0  0
 12 14  1  0  0  0  0
 12 30  1  0  0  0  0
 13 15  2  0  0  0  0
 13 31  1  0  0  0  0
 14 16  2  0  0  0  0
 14 32  1  0  0  0  0
 15 16  1  0  0  0  0
 15 33  1  0  0  0  0
 16 34  1  0  0  0  0
M  END
> <PUBCHEM_COMPOUND_CID>
6436780

> <PUBCHEM_CONFORMER_RMSD>
0.8

> <PUBCHEM_CONFORMER_DIVERSEORDER>
1
91
77
17
81
11
121
82
124
88
46
8
79
48
100
54
105
51
57
111
93
12
106
99
122
67
127
64
21
66
3
75
84
55
98
34
73
110
72
6
23
74
7
94
97
80
59
86
41
95
70
24
101
65
44
68
56
120
9
43
2
117
109
125
5
13
107
52
69
113
33
32
4
114
18
76
102
128
71
50
60
37
112
62
49
108
63
36
126
14
92
115
58
85
19
30
16
42
53
38
39
10
31
61
29
119
35
87
28
26
96
129
123
130
89
15
27
20
40
116
47
22
90
25
83
78
104
45
103
118

> <PUBCHEM_MMFF94_PARTIAL_CHARGES>
19
1 -0.43
10 -0.14
11 -0.18
12 -0.15
13 -0.15
14 -0.15
15 -0.15
16 -0.15
2 -0.57
28 0.15
29 0.15
30 0.15
31 0.15
32 0.15
33 0.15
34 0.15
6 0.28
8 0.71
9 0.03

> <PUBCHEM_EFFECTIVE_ROTOR_COUNT>
7

> <PUBCHEM_PHARMACOPHORE_FEATURES>
3
1 2 acceptor
1 7 hydrophobe
6 9 12 13 14 15 16 rings

> <PUBCHEM_HEAVY_ATOM_COUNT>
16

> <PUBCHEM_ATOM_DEF_STEREO_COUNT>
0

> <PUBCHEM_ATOM_UDEF_STEREO_COUNT>
0

> <PUBCHEM_BOND_DEF_STEREO_COUNT>
1

> <PUBCHEM_BOND_UDEF_STEREO_COUNT>
0

> <PUBCHEM_ISOTOPIC_ATOM_COUNT>
0

> <PUBCHEM_COMPONENT_COUNT>
1

> <PUBCHEM_CACTVS_TAUTO_COUNT>
1

> <PUBCHEM_CONFORMER_ID>
006237AC00000001

> <PUBCHEM_MMFF94_ENERGY>
33.7222

> <PUBCHEM_FEATURE_SELFOVERLAP>
15.223

> <PUBCHEM_SHAPE_FINGERPRINT>
10447042 23 18341887489548438796
11595378 159 15051462561375241643
11858739 19 18412260619425743045
12596602 18 16128658552804471907
13533116 47 18272933851469916897
13685833 64 18409732881159720331
13955234 65 18269273645838654849
1420 369 18271811194136742911
14251740 57 17703519791616183518
14251764 75 12461845612390937338
14252887 29 18202287966048248358
14528608 73 10737290169003196977
14863182 85 17274832341529086694
15183329 4 18114176394560024877
15477762 27 18410014329844413700
17857418 61 18059852896554670527
17859628 70 17560245708961912718
20369508 70 18113330921019692824
20645477 70 18334295383201976068
21267235 1 18343025458878119294
212847 35 8718830881474682782
21501925 9 18412263904965233816
22224240 67 18129933581644397848
2303208 19 17313677044325906779
23253445 4 17060047155847785530
270888 7 9294700096929343526
29717793 49 18334573551760776765
3004659 81 18260268550916765775
427121 178 14261632824489750244
465052 167 18342181076591711863
4990 188 18040715879187268257
5104073 3 18059573525357502953
5281201 14 17967532380910945533
5374978 207 16487256573252474137
542803 24 11674874494742907529
5718773 13 18190456061456603362
59682541 35 18271232894819577922
6025842 7 18263368143231948204
76465 3 18116992187830273626
8988823 20 17632290207243303385
960060 61 17748836219157358119

> <PUBCHEM_SHAPE_MULTIPOLES>
317.53
14.07
1.87
0.87
26.85
0.01
-0.01
7.81
0.43
-1.72
-0.27
-0.49
0.08
0.1

> <PUBCHEM_SHAPE_SELFOVERLAP>
639.134

> <PUBCHEM_SHAPE_VOLUME>
185.4

> <PUBCHEM_COORDINATE_TYPE>
2
5
10

$$$$
