6436339
  -OEChem-11232109073D

 43 43  0     0  0  0  0  0  0999 V2000
   -2.0382   -0.8368    0.7959 O   0  0  0  0  0  0  0  0  0  0  0  0
   -3.3637    0.4001   -0.6328 O   0  0  0  0  0  0  0  0  0  0  0  0
    3.1318    2.1014   -0.3453 C   0  0  0  0  0  0  0  0  0  0  0  0
    1.7534    2.3789   -0.9590 C   0  0  0  0  0  0  0  0  0  0  0  0
    3.2349    0.8557    0.5438 C   0  0  0  0  0  0  0  0  0  0  0  0
    0.6201    2.4559    0.0681 C   0  0  0  0  0  0  0  0  0  0  0  0
    2.7213   -0.4205   -0.1253 C   0  0  0  0  0  0  0  0  0  0  0  0
   -0.7346    2.6567   -0.6172 C   0  0  0  0  0  0  0  0  0  0  0  0
    2.7988   -1.6251    0.8200 C   0  0  0  0  0  0  0  0  0  0  0  0
   -1.9078    2.7500    0.3660 C   0  0  0  0  0  0  0  0  0  0  0  0
    2.0761   -2.8567    0.2613 C   0  0  0  0  0  0  0  0  0  0  0  0
   -2.1690    1.4805    1.1773 C   0  0  0  0  0  0  0  0  0  0  0  0
    0.5854   -2.6568    0.2063 C   0  0  0  0  0  0  0  0  0  0  0  0
   -2.5987    0.3120    0.3186 C   0  0  0  0  0  0  0  0  0  0  0  0
   -1.5873   -2.3322   -1.1020 C   0  0  0  0  0  0  0  0  0  0  0  0
   -0.1123   -2.5870   -0.9374 C   0  0  0  0  0  0  0  0  0  0  0  0
   -2.4102   -2.0762    0.1618 C   0  0  0  0  0  0  0  0  0  0  0  0
    3.4397    2.9727    0.2459 H   0  0  0  0  0  0  0  0  0  0  0  0
    3.8581    2.0122   -1.1629 H   0  0  0  0  0  0  0  0  0  0  0  0
    1.5254    1.6093   -1.7062 H   0  0  0  0  0  0  0  0  0  0  0  0
    1.8054    3.3273   -1.5085 H   0  0  0  0  0  0  0  0  0  0  0  0
    2.6851    1.0306    1.4763 H   0  0  0  0  0  0  0  0  0  0  0  0
    4.2850    0.7180    0.8302 H   0  0  0  0  0  0  0  0  0  0  0  0
    0.8111    3.2803    0.7651 H   0  0  0  0  0  0  0  0  0  0  0  0
    0.5917    1.5346    0.6553 H   0  0  0  0  0  0  0  0  0  0  0  0
    3.3036   -0.6260   -1.0315 H   0  0  0  0  0  0  0  0  0  0  0  0
    1.6846   -0.2736   -0.4389 H   0  0  0  0  0  0  0  0  0  0  0  0
   -0.9128    1.8434   -1.3307 H   0  0  0  0  0  0  0  0  0  0  0  0
   -0.7027    3.5841   -1.2026 H   0  0  0  0  0  0  0  0  0  0  0  0
    2.3716   -1.3632    1.7963 H   0  0  0  0  0  0  0  0  0  0  0  0
    3.8523   -1.8768    0.9925 H   0  0  0  0  0  0  0  0  0  0  0  0
   -2.8110    3.0098   -0.2002 H   0  0  0  0  0  0  0  0  0  0  0  0
   -1.7263    3.5797    1.0602 H   0  0  0  0  0  0  0  0  0  0  0  0
    2.2803   -3.7165    0.9104 H   0  0  0  0  0  0  0  0  0  0  0  0
    2.4804   -3.1061   -0.7271 H   0  0  0  0  0  0  0  0  0  0  0  0
   -2.9766    1.6626    1.8957 H   0  0  0  0  0  0  0  0  0  0  0  0
   -1.2821    1.2103    1.7590 H   0  0  0  0  0  0  0  0  0  0  0  0
    0.0844   -2.5454    1.1631 H   0  0  0  0  0  0  0  0  0  0  0  0
   -1.6910   -1.4740   -1.7768 H   0  0  0  0  0  0  0  0  0  0  0  0
   -2.0136   -3.2002   -1.6192 H   0  0  0  0  0  0  0  0  0  0  0  0
    0.4306   -2.7014   -1.8743 H   0  0  0  0  0  0  0  0  0  0  0  0
   -3.4801   -2.0579   -0.0790 H   0  0  0  0  0  0  0  0  0  0  0  0
   -2.2691   -2.8779    0.8947 H   0  0  0  0  0  0  0  0  0  0  0  0
  1 14  1  0  0  0  0
  1 17  1  0  0  0  0
  2 14  2  0  0  0  0
  3  4  1  0  0  0  0
  3  5  1  0  0  0  0
  3 18  1  0  0  0  0
  3 19  1  0  0  0  0
  4  6  1  0  0  0  0
  4 20  1  0  0  0  0
  4 21  1  0  0  0  0
  5  7  1  0  0  0  0
  5 22  1  0  0  0  0
  5 23  1  0  0  0  0
  6  8  1  0  0  0  0
  6 24  1  0  0  0  0
  6 25  1  0  0  0  0
  7  9  1  0  0  0  0
  7 26  1  0  0  0  0
  7 27  1  0  0  0  0
  8 10  1  0  0  0  0
  8 28  1  0  0  0  0
  8 29  1  0  0  0  0
  9 11  1  0  0  0  0
  9 30  1  0  0  0  0
  9 31  1  0  0  0  0
 10 12  1  0  0  0  0
 10 32  1  0  0  0  0
 10 33  1  0  0  0  0
 11 13  1  0  0  0  0
 11 34  1  0  0  0  0
 11 35  1  0  0  0  0
 12 14  1  0  0  0  0
 12 36  1  0  0  0  0
 12 37  1  0  0  0  0
 13 16  2  0  0  0  0
 13 38  1  0  0  0  0
 15 16  1  0  0  0  0
 15 17  1  0  0  0  0
 15 39  1  0  0  0  0
 15 40  1  0  0  0  0
 16 41  1  0  0  0  0
 17 42  1  0  0  0  0
 17 43  1  0  0  0  0
M  END
> <PUBCHEM_COMPOUND_CID>
6436339

> <PUBCHEM_CONFORMER_RMSD>
0.6

> <PUBCHEM_CONFORMER_DIVERSEORDER>
1

> <PUBCHEM_MMFF94_PARTIAL_CHARGES>
11
1 -0.43
11 0.14
12 0.06
13 -0.29
14 0.66
15 0.14
16 -0.29
17 0.28
2 -0.57
38 0.15
41 0.15

> <PUBCHEM_EFFECTIVE_ROTOR_COUNT>
2.6

> <PUBCHEM_PHARMACOPHORE_FEATURES>
1
1 2 acceptor

> <PUBCHEM_HEAVY_ATOM_COUNT>
17

> <PUBCHEM_ATOM_DEF_STEREO_COUNT>
0

> <PUBCHEM_ATOM_UDEF_STEREO_COUNT>
0

> <PUBCHEM_BOND_DEF_STEREO_COUNT>
1

> <PUBCHEM_BOND_UDEF_STEREO_COUNT>
0

> <PUBCHEM_ISOTOPIC_ATOM_COUNT>
0

> <PUBCHEM_COMPONENT_COUNT>
1

> <PUBCHEM_CACTVS_TAUTO_COUNT>
1

> <PUBCHEM_CONFORMER_ID>
006235F300000001

> <PUBCHEM_MMFF94_ENERGY>
8.07

> <PUBCHEM_FEATURE_SELFOVERLAP>
5.074

> <PUBCHEM_SHAPE_FINGERPRINT>
10616163 171 18409453587256301680
11321824 6 18128532854642250933
12038231 1 18121780530360855538
12054548 360 11850238326844564253
12539773 59 17125383628526334451
12553582 1 18048605824146363676
13032168 30 17910969259155546880
13122387 1 18266458707087042864
13402501 40 16969140337579990736
14081887 123 17913760889240228344
1420 336 18410860987772190258
14251705 54 17977107851330093640
14251711 518 18124597741154993222
14251745 187 17045705405353743912
14251757 17 17682074921491688615
14765038 42 17405178568507505473
14931854 50 17401485352035875694
17093844 170 16247151469235817288
17859628 37 18051412868546930150
20765182 5 17979056508621894016
21141583 151 17621895604892975516
21249577 28 18050567636189060228
238 59 15812816875066650436
2803657 2 17833265703057636236
3014063 31 15456214429357287420
3524813 1 16537645760903003543
44154327 71 18411986879326715555
58250162 1 17763733691565960016
59345606 82 17834674890063856658
5939293 188 17834395622879762282
6438718 38 17482570967540991564

> <PUBCHEM_SHAPE_MULTIPOLES>
338.11
5.38
4.8
1.03
0.85
0.37
0.04
-0.71
-0.66
0.44
0.66
-0.17
0.04
-1.01

> <PUBCHEM_SHAPE_SELFOVERLAP>
642.875

> <PUBCHEM_SHAPE_VOLUME>
205.2

> <PUBCHEM_COORDINATE_TYPE>
2
5
10

$$$$
