6436727
  -OEChem-11232108583D

 40 41  0     1  0  0  0  0  0999 V2000
   -3.1994   -0.2534    0.3390 O   0  0  0  0  0  0  0  0  0  0  0  0
   -1.9432   -0.7857   -0.1045 C   0  0  1  0  0  0  0  0  0  0  0  0
   -2.0260    0.4846    0.7142 C   0  0  1  0  0  0  0  0  0  0  0  0
   -1.6329   -2.1150    0.5167 C   0  0  0  0  0  0  0  0  0  0  0  0
   -1.9847    1.8459    0.0880 C   0  0  0  0  0  0  0  0  0  0  0  0
   -1.8328   -0.7214   -1.5924 C   0  0  0  0  0  0  0  0  0  0  0  0
   -0.2552   -2.6541    0.1205 C   0  0  0  0  0  0  0  0  0  0  0  0
   -0.7254    2.6381    0.4532 C   0  0  0  0  0  0  0  0  0  0  0  0
    0.5619    2.0691   -0.1121 C   0  0  0  0  0  0  0  0  0  0  0  0
    0.8635   -1.8261    0.6864 C   0  0  0  0  0  0  0  0  0  0  0  0
    1.9386   -1.3383    0.0374 C   0  0  0  0  0  0  0  0  0  0  0  0
    1.5219    1.6255    0.7231 C   0  0  0  0  0  0  0  0  0  0  0  0
    2.9324   -0.4617    0.7774 C   0  0  0  0  0  0  0  0  0  0  0  0
    2.8527    1.0166    0.3726 C   0  0  0  0  0  0  0  0  0  0  0  0
    0.6657    2.0781   -1.6125 C   0  0  0  0  0  0  0  0  0  0  0  0
    2.2630   -1.6025   -1.4070 C   0  0  0  0  0  0  0  0  0  0  0  0
   -1.7538    0.4724    1.7608 H   0  0  0  0  0  0  0  0  0  0  0  0
   -2.3937   -2.8394    0.1987 H   0  0  0  0  0  0  0  0  0  0  0  0
   -1.7081   -2.0532    1.6102 H   0  0  0  0  0  0  0  0  0  0  0  0
   -2.8440    2.4058    0.4805 H   0  0  0  0  0  0  0  0  0  0  0  0
   -2.1236    1.8353   -0.9951 H   0  0  0  0  0  0  0  0  0  0  0  0
   -2.1890   -1.6566   -2.0404 H   0  0  0  0  0  0  0  0  0  0  0  0
   -2.4346    0.0715   -2.0454 H   0  0  0  0  0  0  0  0  0  0  0  0
   -0.7926   -0.5888   -1.8994 H   0  0  0  0  0  0  0  0  0  0  0  0
   -0.1923   -2.7605   -0.9648 H   0  0  0  0  0  0  0  0  0  0  0  0
   -0.1556   -3.6654    0.5343 H   0  0  0  0  0  0  0  0  0  0  0  0
   -0.6638    2.7215    1.5462 H   0  0  0  0  0  0  0  0  0  0  0  0
   -0.8359    3.6657    0.0831 H   0  0  0  0  0  0  0  0  0  0  0  0
    0.7580   -1.5895    1.7448 H   0  0  0  0  0  0  0  0  0  0  0  0
    1.3332    1.6845    1.7947 H   0  0  0  0  0  0  0  0  0  0  0  0
    2.7892   -0.5460    1.8631 H   0  0  0  0  0  0  0  0  0  0  0  0
    3.9471   -0.8339    0.5870 H   0  0  0  0  0  0  0  0  0  0  0  0
    3.1049    1.1314   -0.6846 H   0  0  0  0  0  0  0  0  0  0  0  0
    3.6261    1.5696    0.9204 H   0  0  0  0  0  0  0  0  0  0  0  0
    1.5993    1.6613   -1.9923 H   0  0  0  0  0  0  0  0  0  0  0  0
    0.6070    3.1100   -1.9762 H   0  0  0  0  0  0  0  0  0  0  0  0
   -0.1461    1.5173   -2.0764 H   0  0  0  0  0  0  0  0  0  0  0  0
    3.3150   -1.8898   -1.5102 H   0  0  0  0  0  0  0  0  0  0  0  0
    2.0915   -0.7077   -2.0110 H   0  0  0  0  0  0  0  0  0  0  0  0
    1.6780   -2.4171   -1.8393 H   0  0  0  0  0  0  0  0  0  0  0  0
  1  2  1  0  0  0  0
  1  3  1  0  0  0  0
  2  3  1  0  0  0  0
  2  4  1  0  0  0  0
  2  6  1  0  0  0  0
  3  5  1  0  0  0  0
  3 17  1  0  0  0  0
  4  7  1  0  0  0  0
  4 18  1  0  0  0  0
  4 19  1  0  0  0  0
  5  8  1  0  0  0  0
  5 20  1  0  0  0  0
  5 21  1  0  0  0  0
  6 22  1  0  0  0  0
  6 23  1  0  0  0  0
  6 24  1  0  0  0  0
  7 10  1  0  0  0  0
  7 25  1  0  0  0  0
  7 26  1  0  0  0  0
  8  9  1  0  0  0  0
  8 27  1  0  0  0  0
  8 28  1  0  0  0  0
  9 12  2  0  0  0  0
  9 15  1  0  0  0  0
 10 11  2  0  0  0  0
 10 29  1  0  0  0  0
 11 13  1  0  0  0  0
 11 16  1  0  0  0  0
 12 14  1  0  0  0  0
 12 30  1  0  0  0  0
 13 14  1  0  0  0  0
 13 31  1  0  0  0  0
 13 32  1  0  0  0  0
 14 33  1  0  0  0  0
 14 34  1  0  0  0  0
 15 35  1  0  0  0  0
 15 36  1  0  0  0  0
 15 37  1  0  0  0  0
 16 38  1  0  0  0  0
 16 39  1  0  0  0  0
 16 40  1  0  0  0  0
M  END
> <PUBCHEM_COMPOUND_CID>
6436727

> <PUBCHEM_CONFORMER_RMSD>
0.6

> <PUBCHEM_CONFORMER_DIVERSEORDER>
1
14
5
21
22
15
17
13
18
12
9
11
19
4
16
2
7
20
8
10
6
3

> <PUBCHEM_MMFF94_PARTIAL_CHARGES>
19
1 -0.3
10 -0.29
11 -0.28
12 -0.29
13 0.14
14 0.14
15 0.14
16 0.14
17 0.1
2 -0.04
29 0.15
3 -0.05
30 0.15
4 0.09
5 0.09
6 0.09
7 0.14
8 0.14
9 -0.28

> <PUBCHEM_EFFECTIVE_ROTOR_COUNT>
1.4

> <PUBCHEM_PHARMACOPHORE_FEATURES>
1
1 1 acceptor

> <PUBCHEM_HEAVY_ATOM_COUNT>
16

> <PUBCHEM_ATOM_DEF_STEREO_COUNT>
0

> <PUBCHEM_ATOM_UDEF_STEREO_COUNT>
2

> <PUBCHEM_BOND_DEF_STEREO_COUNT>
2

> <PUBCHEM_BOND_UDEF_STEREO_COUNT>
0

> <PUBCHEM_ISOTOPIC_ATOM_COUNT>
0

> <PUBCHEM_COMPONENT_COUNT>
1

> <PUBCHEM_CACTVS_TAUTO_COUNT>
1

> <PUBCHEM_CONFORMER_ID>
0062377700000001

> <PUBCHEM_MMFF94_ENERGY>
21.6827

> <PUBCHEM_FEATURE_SELFOVERLAP>
5.074

> <PUBCHEM_SHAPE_FINGERPRINT>
104564 63 18412546509381180304
10967382 1 18410854407882286539
12382932 28 18339641256007178792
12696612 119 18190462859930247058
13140716 1 17978507864460399392
1420 336 18410293579716789834
14251711 518 18196645199006850863
14251740 79 17117234718762833390
14251745 187 18271540779180809100
14386348 128 17763194535462085928
15775835 57 18059578047894742025
15881359 60 17689664970290598988
16945 1 18340476885107961128
19930374 2 17971724737048298320
20905425 154 17472146549116537342
22721475 48 18410575080552935968
22802520 49 17841442427188499222
2334 1 18410572851354100600
23419403 2 16759083326866062193
23559900 14 17335341533683337526
238 59 17115753049228447543
2748010 2 18337953376772587297
2897 32 18409731724900836144
484985 159 16094237142948250954
66348 1 17978228257731015665

> <PUBCHEM_SHAPE_MULTIPOLES>
323.4
4.12
3.38
1.24
0.38
0.36
-0.58
-0.47
0.38
-0.08
0
0.16
0.03
0.09

> <PUBCHEM_SHAPE_SELFOVERLAP>
642.579

> <PUBCHEM_SHAPE_VOLUME>
192.2

> <PUBCHEM_COORDINATE_TYPE>
2
5
10

$$$$
