6436719
  -OEChem-11232108433D

 36 35  0     0  0  0  0  0  0999 V2000
    6.1130    0.8122    0.0108 O   0  0  0  0  0  0  0  0  0  0  0  0
   -4.5249    0.4715   -0.0810 C   0  0  0  0  0  0  0  0  0  0  0  0
   -3.4130    0.1351   -1.0955 C   0  0  0  0  0  0  0  0  0  0  0  0
   -2.0919   -0.2629   -0.4714 C   0  0  0  0  0  0  0  0  0  0  0  0
    0.2386    0.2809    0.4498 C   0  0  0  0  0  0  0  0  0  0  0  0
   -4.0759    1.6286    0.8153 C   0  0  0  0  0  0  0  0  0  0  0  0
   -4.9070   -0.7323    0.7830 C   0  0  0  0  0  0  0  0  0  0  0  0
   -1.1135    0.5973   -0.1272 C   0  0  0  0  0  0  0  0  0  0  0  0
    1.3028    0.0451   -0.6303 C   0  0  0  0  0  0  0  0  0  0  0  0
   -1.8879   -1.7449   -0.2876 C   0  0  0  0  0  0  0  0  0  0  0  0
    2.6776   -0.2672   -0.0749 C   0  0  0  0  0  0  0  0  0  0  0  0
    2.7547   -1.5294    0.7480 C   0  0  0  0  0  0  0  0  0  0  0  0
    3.7939    0.4543   -0.2812 C   0  0  0  0  0  0  0  0  0  0  0  0
    5.1337    0.1117    0.2422 C   0  0  0  0  0  0  0  0  0  0  0  0
   -5.4100    0.7880   -0.6467 H   0  0  0  0  0  0  0  0  0  0  0  0
   -3.7595   -0.6530   -1.7758 H   0  0  0  0  0  0  0  0  0  0  0  0
   -3.2481    1.0126   -1.7358 H   0  0  0  0  0  0  0  0  0  0  0  0
    0.1690   -0.5726    1.1334 H   0  0  0  0  0  0  0  0  0  0  0  0
    0.5421    1.1267    1.0809 H   0  0  0  0  0  0  0  0  0  0  0  0
   -3.2833    1.3404    1.5128 H   0  0  0  0  0  0  0  0  0  0  0  0
   -3.7299    2.4804    0.2205 H   0  0  0  0  0  0  0  0  0  0  0  0
   -4.9199    1.9775    1.4214 H   0  0  0  0  0  0  0  0  0  0  0  0
   -5.8174   -0.5107    1.3514 H   0  0  0  0  0  0  0  0  0  0  0  0
   -4.1305   -0.9844    1.5110 H   0  0  0  0  0  0  0  0  0  0  0  0
   -5.1097   -1.6125    0.1643 H   0  0  0  0  0  0  0  0  0  0  0  0
   -1.2866    1.6565   -0.3121 H   0  0  0  0  0  0  0  0  0  0  0  0
    0.9983   -0.7798   -1.2872 H   0  0  0  0  0  0  0  0  0  0  0  0
    1.3624    0.9343   -1.2721 H   0  0  0  0  0  0  0  0  0  0  0  0
   -0.8424   -2.0327   -0.1516 H   0  0  0  0  0  0  0  0  0  0  0  0
   -2.2322   -2.2868   -1.1756 H   0  0  0  0  0  0  0  0  0  0  0  0
   -2.4463   -2.1160    0.5749 H   0  0  0  0  0  0  0  0  0  0  0  0
    2.7665   -1.2925    1.8167 H   0  0  0  0  0  0  0  0  0  0  0  0
    3.6254   -2.1421    0.4955 H   0  0  0  0  0  0  0  0  0  0  0  0
    1.8874   -2.1723    0.5590 H   0  0  0  0  0  0  0  0  0  0  0  0
    3.7459    1.3575   -0.8832 H   0  0  0  0  0  0  0  0  0  0  0  0
    5.2189   -0.7870    0.8691 H   0  0  0  0  0  0  0  0  0  0  0  0
  1 14  2  0  0  0  0
  2  3  1  0  0  0  0
  2  6  1  0  0  0  0
  2  7  1  0  0  0  0
  2 15  1  0  0  0  0
  3  4  1  0  0  0  0
  3 16  1  0  0  0  0
  3 17  1  0  0  0  0
  4  8  2  0  0  0  0
  4 10  1  0  0  0  0
  5  8  1  0  0  0  0
  5  9  1  0  0  0  0
  5 18  1  0  0  0  0
  5 19  1  0  0  0  0
  6 20  1  0  0  0  0
  6 21  1  0  0  0  0
  6 22  1  0  0  0  0
  7 23  1  0  0  0  0
  7 24  1  0  0  0  0
  7 25  1  0  0  0  0
  8 26  1  0  0  0  0
  9 11  1  0  0  0  0
  9 27  1  0  0  0  0
  9 28  1  0  0  0  0
 10 29  1  0  0  0  0
 10 30  1  0  0  0  0
 10 31  1  0  0  0  0
 11 12  1  0  0  0  0
 11 13  2  0  0  0  0
 12 32  1  0  0  0  0
 12 33  1  0  0  0  0
 12 34  1  0  0  0  0
 13 14  1  0  0  0  0
 13 35  1  0  0  0  0
 14 36  1  0  0  0  0
M  END
> <PUBCHEM_COMPOUND_CID>
6436719

> <PUBCHEM_CONFORMER_RMSD>
0.6

> <PUBCHEM_CONFORMER_DIVERSEORDER>
8
122
15
53
16
41
24
37
70
48
131
81
18
67
103
58
110
13
133
85
35
101
52
106
17
123
11
63
27
72
75
99
83
132
62
125
119
28
118
38
40
107
5
23
30
92
56
126
102
65
127
42
86
59
36
104
84
90
6
61
100
98
95
76
89
108
128
79
120
51
115
2
55
129
80
7
31
21
20
64
105
45
49
4
124
57
117
94
96
50
34
97
44
77
112
60
134
10
66
73
91
46
109
25
47
22
32
43
93
116
71
69
14
130
26
29
111
39
78
1
68
54
121
82
87
114
74
113
33
9
3
88
19
12

> <PUBCHEM_MMFF94_PARTIAL_CHARGES>
14
1 -0.57
10 0.14
11 -0.28
12 0.14
13 -0.14
14 0.5
26 0.15
3 0.14
35 0.15
36 0.06
4 -0.28
5 0.14
8 -0.29
9 0.14

> <PUBCHEM_EFFECTIVE_ROTOR_COUNT>
6

> <PUBCHEM_PHARMACOPHORE_FEATURES>
5
1 1 acceptor
1 10 hydrophobe
1 12 hydrophobe
3 2 6 7 hydrophobe
4 5 8 9 11 hydrophobe

> <PUBCHEM_HEAVY_ATOM_COUNT>
14

> <PUBCHEM_ATOM_DEF_STEREO_COUNT>
0

> <PUBCHEM_ATOM_UDEF_STEREO_COUNT>
0

> <PUBCHEM_BOND_DEF_STEREO_COUNT>
2

> <PUBCHEM_BOND_UDEF_STEREO_COUNT>
0

> <PUBCHEM_ISOTOPIC_ATOM_COUNT>
0

> <PUBCHEM_COMPONENT_COUNT>
1

> <PUBCHEM_CACTVS_TAUTO_COUNT>
1

> <PUBCHEM_CONFORMER_ID>
0062376F00000008

> <PUBCHEM_MMFF94_ENERGY>
20.636

> <PUBCHEM_FEATURE_SELFOVERLAP>
25.379

> <PUBCHEM_SHAPE_FINGERPRINT>
10680689 15 17203605999883148109
11287383 113 17530686528327754608
12091667 2 17989486329271174252
13288520 33 10665232553469528337
14123238 8 17458063767821959854
14251718 22 17703788141166996965
14251732 16 17895480352712419080
14251764 46 18407758140631933766
14252887 29 17168143391244130050
15048467 5 18272088283741185585
15242433 33 18412260627683666982
15242439 84 13686295781353730238
15375358 24 17846782905509133134
15501527 16 18342175600571413744
17834072 33 18340485659420269588
17834072 8 12319458762546807795
17834076 25 18272931630945314356
20279233 1 17203615903850977158
20621476 66 17631744768341371369
20645477 56 18413668019514805549
20645477 70 18261107410076320986
22485316 2 17967249776288906371
23402539 116 18272364265755255861
23402655 69 18341611529963948134
23559900 14 9439111036004361214
23590187 198 11169908377491321344
300161 21 18340759377733503452
3286 77 12901555649507939335
3545911 37 18408041814711118766
42788 4 18272651251333087156
449060 50 18187363229482891278
5104073 3 18334856061085920163
542803 24 17917991676617805916
57483677 66 8358262536105283880
7495541 125 13768219310898120212

> <PUBCHEM_SHAPE_MULTIPOLES>
282.24
12.7
1.34
0.91
8.79
0.3
0.01
-2.58
-1.58
-0.66
-0.23
-0.57
0.02
-0.46

> <PUBCHEM_SHAPE_SELFOVERLAP>
529.455

> <PUBCHEM_SHAPE_VOLUME>
176.5

> <PUBCHEM_COORDINATE_TYPE>
2
5
10

$$$$
