6436369
  -OEChem-11232109013D

 44 43  0     0  0  0  0  0  0999 V2000
    1.6862   -1.6368    0.0772 O   0  0  0  0  0  0  0  0  0  0  0  0
    1.1353    0.0513    1.5636 O   0  0  0  0  0  0  0  0  0  0  0  0
   -2.8914   -1.2327   -1.4814 C   0  0  0  0  0  0  0  0  0  0  0  0
   -3.6912    0.0005   -1.0411 C   0  0  0  0  0  0  0  0  0  0  0  0
   -1.9062   -1.7241   -0.4416 C   0  0  0  0  0  0  0  0  0  0  0  0
   -2.8104    1.1758   -0.7184 C   0  0  0  0  0  0  0  0  0  0  0  0
   -0.5726   -1.7975   -0.6187 C   0  0  0  0  0  0  0  0  0  0  0  0
   -2.5204   -2.1828    0.8563 C   0  0  0  0  0  0  0  0  0  0  0  0
   -2.7750    1.9014    0.4152 C   0  0  0  0  0  0  0  0  0  0  0  0
    0.4570   -2.2992    0.3430 C   0  0  0  0  0  0  0  0  0  0  0  0
    3.2036    0.0870    0.3575 C   0  0  0  0  0  0  0  0  0  0  0  0
   -1.8202    3.0580    0.5477 C   0  0  0  0  0  0  0  0  0  0  0  0
   -3.6227    1.6566    1.6309 C   0  0  0  0  0  0  0  0  0  0  0  0
    3.2697    0.9301   -0.6963 C   0  0  0  0  0  0  0  0  0  0  0  0
    1.8897   -0.4735    0.7589 C   0  0  0  0  0  0  0  0  0  0  0  0
    4.3712   -0.3948    1.1682 C   0  0  0  0  0  0  0  0  0  0  0  0
    4.5385    1.5691   -1.2078 C   0  0  0  0  0  0  0  0  0  0  0  0
    2.0589    1.3116   -1.5131 C   0  0  0  0  0  0  0  0  0  0  0  0
   -3.5881   -2.0452   -1.7231 H   0  0  0  0  0  0  0  0  0  0  0  0
   -2.3627   -1.0016   -2.4157 H   0  0  0  0  0  0  0  0  0  0  0  0
   -4.3517   -0.2709   -0.2139 H   0  0  0  0  0  0  0  0  0  0  0  0
   -4.3511    0.2941   -1.8672 H   0  0  0  0  0  0  0  0  0  0  0  0
   -2.1424    1.4667   -1.5289 H   0  0  0  0  0  0  0  0  0  0  0  0
   -0.1871   -1.4891   -1.5902 H   0  0  0  0  0  0  0  0  0  0  0  0
   -3.4620   -2.7095    0.6638 H   0  0  0  0  0  0  0  0  0  0  0  0
   -2.7335   -1.3271    1.5035 H   0  0  0  0  0  0  0  0  0  0  0  0
   -1.8922   -2.8857    1.4103 H   0  0  0  0  0  0  0  0  0  0  0  0
    0.6267   -3.3654    0.1600 H   0  0  0  0  0  0  0  0  0  0  0  0
    0.1715   -2.1858    1.3936 H   0  0  0  0  0  0  0  0  0  0  0  0
   -1.2106    3.2022   -0.3506 H   0  0  0  0  0  0  0  0  0  0  0  0
   -2.3718    3.9866    0.7275 H   0  0  0  0  0  0  0  0  0  0  0  0
   -1.1370    2.8904    1.3870 H   0  0  0  0  0  0  0  0  0  0  0  0
   -4.3338    0.8368    1.5188 H   0  0  0  0  0  0  0  0  0  0  0  0
   -2.9853    1.4215    2.4900 H   0  0  0  0  0  0  0  0  0  0  0  0
   -4.2022    2.5548    1.8698 H   0  0  0  0  0  0  0  0  0  0  0  0
    4.1608   -1.3720    1.6169 H   0  0  0  0  0  0  0  0  0  0  0  0
    4.5850    0.3094    1.9783 H   0  0  0  0  0  0  0  0  0  0  0  0
    5.2707   -0.5203    0.5585 H   0  0  0  0  0  0  0  0  0  0  0  0
    5.4026    1.3795   -0.5662 H   0  0  0  0  0  0  0  0  0  0  0  0
    4.7727    1.1938   -2.2093 H   0  0  0  0  0  0  0  0  0  0  0  0
    4.4167    2.6562   -1.2643 H   0  0  0  0  0  0  0  0  0  0  0  0
    1.9419    2.4009   -1.5199 H   0  0  0  0  0  0  0  0  0  0  0  0
    1.1169    0.8959   -1.1482 H   0  0  0  0  0  0  0  0  0  0  0  0
    2.1854    0.9742   -2.5475 H   0  0  0  0  0  0  0  0  0  0  0  0
  1 10  1  0  0  0  0
  1 15  1  0  0  0  0
  2 15  2  0  0  0  0
  3  4  1  0  0  0  0
  3  5  1  0  0  0  0
  3 19  1  0  0  0  0
  3 20  1  0  0  0  0
  4  6  1  0  0  0  0
  4 21  1  0  0  0  0
  4 22  1  0  0  0  0
  5  7  2  0  0  0  0
  5  8  1  0  0  0  0
  6  9  2  0  0  0  0
  6 23  1  0  0  0  0
  7 10  1  0  0  0  0
  7 24  1  0  0  0  0
  8 25  1  0  0  0  0
  8 26  1  0  0  0  0
  8 27  1  0  0  0  0
  9 12  1  0  0  0  0
  9 13  1  0  0  0  0
 10 28  1  0  0  0  0
 10 29  1  0  0  0  0
 11 14  2  0  0  0  0
 11 15  1  0  0  0  0
 11 16  1  0  0  0  0
 12 30  1  0  0  0  0
 12 31  1  0  0  0  0
 12 32  1  0  0  0  0
 13 33  1  0  0  0  0
 13 34  1  0  0  0  0
 13 35  1  0  0  0  0
 14 17  1  0  0  0  0
 14 18  1  0  0  0  0
 16 36  1  0  0  0  0
 16 37  1  0  0  0  0
 16 38  1  0  0  0  0
 17 39  1  0  0  0  0
 17 40  1  0  0  0  0
 17 41  1  0  0  0  0
 18 42  1  0  0  0  0
 18 43  1  0  0  0  0
 18 44  1  0  0  0  0
M  END
> <PUBCHEM_COMPOUND_CID>
6436369

> <PUBCHEM_CONFORMER_RMSD>
1

> <PUBCHEM_CONFORMER_DIVERSEORDER>
2
51
161
95
180
189
174
77
129
184
197
46
82
47
183
212
164
40
98
167
155
67
126
66
12
73
165
127
186
80
135
9
75
125
101
15
196
131
122
143
50
48
148
173
10
153
17
190
85
110
200
166
157
199
152
206
105
136
168
70
87
4
116
171
88
146
156
195
92
104
169
179
71
207
154
144
8
181
59
139
194
192
141
120
96
124
113
86
41
97
34
74
119
21
208
151
69
61
188
215
160
28
19
18
6
1
185
150
79
91
83
176
65
134
210
182
121
170
107
64
203
214
159
123
108
149
78
38
7
204
30
90
145
31
99
132
24
147
133
114
198
84
37
112
44
202
11
58
216
205
201
53
55
102
20
211
162
163
94
193
57
16
27
72
54
177
22
13
213
76
128
60
33
62
49
3
45
93
142
35
191
187
106
89
209
158
115
43
56
217
175
5
39
42
111
25
100
14
138
29
172
63
140
26
52
117
218
118
23
178
103
32
36
109
137
130
68
81

> <PUBCHEM_MMFF94_PARTIAL_CHARGES>
20
1 -0.43
10 0.42
11 -0.12
12 0.14
13 0.14
14 -0.28
15 0.71
16 0.14
17 0.14
18 0.14
2 -0.57
23 0.15
24 0.15
3 0.14
4 0.14
5 -0.28
6 -0.29
7 -0.29
8 0.14
9 -0.28

> <PUBCHEM_EFFECTIVE_ROTOR_COUNT>
7

> <PUBCHEM_PHARMACOPHORE_FEATURES>
6
1 16 hydrophobe
1 2 acceptor
1 8 hydrophobe
3 14 17 18 hydrophobe
3 9 12 13 hydrophobe
4 3 4 5 6 hydrophobe

> <PUBCHEM_HEAVY_ATOM_COUNT>
18

> <PUBCHEM_ATOM_DEF_STEREO_COUNT>
0

> <PUBCHEM_ATOM_UDEF_STEREO_COUNT>
0

> <PUBCHEM_BOND_DEF_STEREO_COUNT>
1

> <PUBCHEM_BOND_UDEF_STEREO_COUNT>
0

> <PUBCHEM_ISOTOPIC_ATOM_COUNT>
0

> <PUBCHEM_COMPONENT_COUNT>
1

> <PUBCHEM_CACTVS_TAUTO_COUNT>
1

> <PUBCHEM_CONFORMER_ID>
0062361100000002

> <PUBCHEM_MMFF94_ENERGY>
27.0505

> <PUBCHEM_FEATURE_SELFOVERLAP>
30.469

> <PUBCHEM_SHAPE_FINGERPRINT>
10498660 4 18341321271378262085
11615756 256 18411140207991511799
12596599 1 17967814950866842006
13583140 156 16805602525644304425
13764800 53 18335138709063910235
13899415 154 18196374943360683639
14123250 116 18341900671030326145
14123260 362 18411138030532588055
14787075 74 18261386793899687679
15183329 4 18259708892063802286
18981168 100 18192737607849276999
20233049 118 18270947029858782674
20510252 161 18042686285402424411
20539926 19 18407762534093340580
21141583 151 18059851809189706784
22749437 52 18336257968492104709
235170 7 16415476099157800340
23557571 272 17700678829631786303
44154327 71 18196938777644669281
474 4 18261385590717773839
5048184 11 18339929186436416301
6438718 38 18131356323140337773
7064713 232 18339915996517906312

> <PUBCHEM_SHAPE_MULTIPOLES>
358.69
8.41
3.03
1.55
5.15
0.46
0.01
3.22
-0.42
-2.28
0.35
-0.11
0.29
-1.88

> <PUBCHEM_SHAPE_SELFOVERLAP>
687.959

> <PUBCHEM_SHAPE_VOLUME>
221.3

> <PUBCHEM_COORDINATE_TYPE>
2
5
10

$$$$
