6436625
  -OEChem-11232109433D

 22 21  0     0  0  0  0  0  0999 V2000
   -4.5659    0.8088    0.1859 O   0  0  0  0  0  0  0  0  0  0  0  0
    3.6873    0.2341   -0.4810 C   0  0  0  0  0  0  0  0  0  0  0  0
    2.8459   -0.8862    0.0569 C   0  0  0  0  0  0  0  0  0  0  0  0
    4.0565    1.2247    0.6124 C   0  0  0  0  0  0  0  0  0  0  0  0
    1.5057   -0.8530    0.1025 C   0  0  0  0  0  0  0  0  0  0  0  0
    0.7262    0.2721   -0.3645 C   0  0  0  0  0  0  0  0  0  0  0  0
   -0.6143    0.3024   -0.3176 C   0  0  0  0  0  0  0  0  0  0  0  0
   -1.4097   -0.7876    0.2046 C   0  0  0  0  0  0  0  0  0  0  0  0
   -2.7476   -0.7500    0.2482 C   0  0  0  0  0  0  0  0  0  0  0  0
   -3.4841    0.4347   -0.2473 C   0  0  0  0  0  0  0  0  0  0  0  0
    4.6081   -0.2043   -0.8861 H   0  0  0  0  0  0  0  0  0  0  0  0
    3.2226    0.7484   -1.3278 H   0  0  0  0  0  0  0  0  0  0  0  0
    3.3645   -1.7607    0.4411 H   0  0  0  0  0  0  0  0  0  0  0  0
    4.7174    1.9994    0.2105 H   0  0  0  0  0  0  0  0  0  0  0  0
    3.1698    1.7194    1.0224 H   0  0  0  0  0  0  0  0  0  0  0  0
    4.5819    0.7292    1.4362 H   0  0  0  0  0  0  0  0  0  0  0  0
    1.0305   -1.7314    0.5203 H   0  0  0  0  0  0  0  0  0  0  0  0
    1.2255    1.1524   -0.7547 H   0  0  0  0  0  0  0  0  0  0  0  0
   -1.0800    1.2152   -0.6697 H   0  0  0  0  0  0  0  0  0  0  0  0
   -0.9505   -1.6797    0.6108 H   0  0  0  0  0  0  0  0  0  0  0  0
   -3.3224   -1.5487    0.7023 H   0  0  0  0  0  0  0  0  0  0  0  0
   -3.0283    0.9768   -1.0890 H   0  0  0  0  0  0  0  0  0  0  0  0
  1 10  2  0  0  0  0
  2  3  1  0  0  0  0
  2  4  1  0  0  0  0
  2 11  1  0  0  0  0
  2 12  1  0  0  0  0
  3  5  2  0  0  0  0
  3 13  1  0  0  0  0
  4 14  1  0  0  0  0
  4 15  1  0  0  0  0
  4 16  1  0  0  0  0
  5  6  1  0  0  0  0
  5 17  1  0  0  0  0
  6  7  2  0  0  0  0
  6 18  1  0  0  0  0
  7  8  1  0  0  0  0
  7 19  1  0  0  0  0
  8  9  2  0  0  0  0
  8 20  1  0  0  0  0
  9 10  1  0  0  0  0
  9 21  1  0  0  0  0
 10 22  1  0  0  0  0
M  END
> <PUBCHEM_COMPOUND_CID>
6436625

> <PUBCHEM_CONFORMER_RMSD>
0.6

> <PUBCHEM_CONFORMER_DIVERSEORDER>
2
3
1

> <PUBCHEM_MMFF94_PARTIAL_CHARGES>
16
1 -0.57
10 0.5
13 0.15
17 0.15
18 0.15
19 0.15
2 0.14
20 0.15
21 0.15
22 0.06
3 -0.29
5 -0.15
6 -0.15
7 -0.15
8 -0.15
9 -0.14

> <PUBCHEM_EFFECTIVE_ROTOR_COUNT>
4

> <PUBCHEM_PHARMACOPHORE_FEATURES>
2
1 1 acceptor
1 4 hydrophobe

> <PUBCHEM_HEAVY_ATOM_COUNT>
10

> <PUBCHEM_ATOM_DEF_STEREO_COUNT>
0

> <PUBCHEM_ATOM_UDEF_STEREO_COUNT>
0

> <PUBCHEM_BOND_DEF_STEREO_COUNT>
3

> <PUBCHEM_BOND_UDEF_STEREO_COUNT>
0

> <PUBCHEM_ISOTOPIC_ATOM_COUNT>
0

> <PUBCHEM_COMPONENT_COUNT>
1

> <PUBCHEM_CACTVS_TAUTO_COUNT>
1

> <PUBCHEM_CONFORMER_ID>
0062371100000002

> <PUBCHEM_MMFF94_ENERGY>
18.8444

> <PUBCHEM_FEATURE_SELFOVERLAP>
10.148

> <PUBCHEM_SHAPE_FINGERPRINT>
11062470 55 18411982451130855415
11543360 7 16845283986084525871
14123238 8 17967254208721464559
14325111 11 18408604768447992782
14993402 34 15482671299029860504
177051 138 8790886285089845582
17834072 33 17988637540764968015
17834076 25 18260832600598060252
190213 19 18335143098108627334
20528008 55 18412824689769607458
20645477 70 18130228146911884702
22485316 2 18409445894816919599
22959321 60 18337673130451903168
23402539 116 7997973440454585467
42 15 12179838399037070028
449060 50 18410858780148444109
449060 62 18408044022413914788

> <PUBCHEM_SHAPE_MULTIPOLES>
199.93
8.61
1.13
0.71
1.97
0.01
0
2.72
-0.7
-0.34
-0.12
-0.23
0.05
0.29

> <PUBCHEM_SHAPE_SELFOVERLAP>
376.21

> <PUBCHEM_SHAPE_VOLUME>
123.6

> <PUBCHEM_COORDINATE_TYPE>
2
5
10

$$$$
