6436374
  -OEChem-11232109423D

 44 44  0     0  0  0  0  0  0999 V2000
    0.3861   -1.5803    0.0033 O   0  0  0  0  0  0  0  0  0  0  0  0
    1.3538    0.2871    0.9503 O   0  0  0  0  0  0  0  0  0  0  0  0
   -3.6135   -0.8634   -0.6976 C   0  0  0  0  0  0  0  0  0  0  0  0
   -4.4104   -0.1372    0.3940 C   0  0  0  0  0  0  0  0  0  0  0  0
   -3.0389   -2.1919   -0.2519 C   0  0  0  0  0  0  0  0  0  0  0  0
   -4.9570    1.1840   -0.0716 C   0  0  0  0  0  0  0  0  0  0  0  0
   -1.8302   -2.3546    0.3208 C   0  0  0  0  0  0  0  0  0  0  0  0
   -3.9120   -3.3905   -0.5228 C   0  0  0  0  0  0  0  0  0  0  0  0
   -4.4216    2.4086    0.0902 C   0  0  0  0  0  0  0  0  0  0  0  0
   -0.8324   -1.2998    0.6792 C   0  0  0  0  0  0  0  0  0  0  0  0
    2.6237   -1.1374   -0.5591 C   0  0  0  0  0  0  0  0  0  0  0  0
    3.8187   -0.2447   -0.3448 C   0  0  0  0  0  0  0  0  0  0  0  0
   -5.1299    3.6247   -0.4450 C   0  0  0  0  0  0  0  0  0  0  0  0
   -3.1157    2.7032    0.7718 C   0  0  0  0  0  0  0  0  0  0  0  0
    1.4117   -0.6988    0.2278 C   0  0  0  0  0  0  0  0  0  0  0  0
    4.0083    0.8515   -1.1736 C   0  0  0  0  0  0  0  0  0  0  0  0
    4.7105   -0.5324    0.6781 C   0  0  0  0  0  0  0  0  0  0  0  0
    5.1143    1.6781   -0.9753 C   0  0  0  0  0  0  0  0  0  0  0  0
    5.8163    0.2943    0.8765 C   0  0  0  0  0  0  0  0  0  0  0  0
    6.0181    1.3995    0.0497 C   0  0  0  0  0  0  0  0  0  0  0  0
   -4.2536   -1.0251   -1.5755 H   0  0  0  0  0  0  0  0  0  0  0  0
   -2.8069   -0.2131   -1.0592 H   0  0  0  0  0  0  0  0  0  0  0  0
   -5.2553   -0.7609    0.7130 H   0  0  0  0  0  0  0  0  0  0  0  0
   -3.7918   -0.0062    1.2890 H   0  0  0  0  0  0  0  0  0  0  0  0
   -5.9036    1.1062   -0.6055 H   0  0  0  0  0  0  0  0  0  0  0  0
   -1.5233   -3.3656    0.5866 H   0  0  0  0  0  0  0  0  0  0  0  0
   -4.0960   -3.4904   -1.5975 H   0  0  0  0  0  0  0  0  0  0  0  0
   -4.8747   -3.2802   -0.0133 H   0  0  0  0  0  0  0  0  0  0  0  0
   -3.4593   -4.3252   -0.1756 H   0  0  0  0  0  0  0  0  0  0  0  0
   -0.6617   -1.3342    1.7617 H   0  0  0  0  0  0  0  0  0  0  0  0
   -1.1749   -0.2952    0.4153 H   0  0  0  0  0  0  0  0  0  0  0  0
    2.3608   -1.1527   -1.6237 H   0  0  0  0  0  0  0  0  0  0  0  0
    2.8761   -2.1643   -0.2681 H   0  0  0  0  0  0  0  0  0  0  0  0
   -4.5016    4.1360   -1.1817 H   0  0  0  0  0  0  0  0  0  0  0  0
   -5.3501    4.3231    0.3691 H   0  0  0  0  0  0  0  0  0  0  0  0
   -6.0779    3.3755   -0.9334 H   0  0  0  0  0  0  0  0  0  0  0  0
   -2.4523    3.2516    0.0946 H   0  0  0  0  0  0  0  0  0  0  0  0
   -2.5816    1.8030    1.0848 H   0  0  0  0  0  0  0  0  0  0  0  0
   -3.2850    3.3175    1.6621 H   0  0  0  0  0  0  0  0  0  0  0  0
    3.3089    1.0784   -1.9733 H   0  0  0  0  0  0  0  0  0  0  0  0
    4.5611   -1.3894    1.3287 H   0  0  0  0  0  0  0  0  0  0  0  0
    5.2712    2.5390   -1.6186 H   0  0  0  0  0  0  0  0  0  0  0  0
    6.5198    0.0779    1.6750 H   0  0  0  0  0  0  0  0  0  0  0  0
    6.8791    2.0433    0.2044 H   0  0  0  0  0  0  0  0  0  0  0  0
  1 10  1  0  0  0  0
  1 15  1  0  0  0  0
  2 15  2  0  0  0  0
  3  4  1  0  0  0  0
  3  5  1  0  0  0  0
  3 21  1  0  0  0  0
  3 22  1  0  0  0  0
  4  6  1  0  0  0  0
  4 23  1  0  0  0  0
  4 24  1  0  0  0  0
  5  7  2  0  0  0  0
  5  8  1  0  0  0  0
  6  9  2  0  0  0  0
  6 25  1  0  0  0  0
  7 10  1  0  0  0  0
  7 26  1  0  0  0  0
  8 27  1  0  0  0  0
  8 28  1  0  0  0  0
  8 29  1  0  0  0  0
  9 13  1  0  0  0  0
  9 14  1  0  0  0  0
 10 30  1  0  0  0  0
 10 31  1  0  0  0  0
 11 12  1  0  0  0  0
 11 15  1  0  0  0  0
 11 32  1  0  0  0  0
 11 33  1  0  0  0  0
 12 16  2  0  0  0  0
 12 17  1  0  0  0  0
 13 34  1  0  0  0  0
 13 35  1  0  0  0  0
 13 36  1  0  0  0  0
 14 37  1  0  0  0  0
 14 38  1  0  0  0  0
 14 39  1  0  0  0  0
 16 18  1  0  0  0  0
 16 40  1  0  0  0  0
 17 19  2  0  0  0  0
 17 41  1  0  0  0  0
 18 20  2  0  0  0  0
 18 42  1  0  0  0  0
 19 20  1  0  0  0  0
 19 43  1  0  0  0  0
 20 44  1  0  0  0  0
M  END
> <PUBCHEM_COMPOUND_CID>
6436374

> <PUBCHEM_CONFORMER_RMSD>
1

> <PUBCHEM_CONFORMER_DIVERSEORDER>
1
23
186
182
263
67
16
63
262
28
278
230
248
71
138
240
68
164
9
293
168
203
244
122
48
26
78
216
189
51
79
102
178
273
42
162
57
35
15
270
255
229
166
25
246
199
7
205
179
114
283
290
13
169
147
125
277
215
209
266
175
226
3
10
14
221
34
124
195
100
99
183
247
135
111
58
163
157
65
107
287
257
36
212
19
271
242
151
31
174
275
134
155
227
198
279
127
281
269
234
224
94
80
74
170
241
75
110
73
260
268
91
153
44
211
207
90
294
185
158
5
285
93
292
150
145
95
96
225
291
202
104
29
70
98
66
249
88
140
76
77
84
237
106
59
193
27
2
97
228
112
264
20
30
288
192
89
116
37
284
144
136
289
261
204
53
17
54
231
108
6
159
276
219
60
188
142
152
171
21
235
208
56
156
18
39
197
274
11
81
72
251
173
146
137
232
129
126
181
50
160
40
22
64
61
196
120
233
141
132
121
254
45
154
256
206
143
82
243
131
180
86
117
55
43
92
252
62
265
258
239
103
46
167
69
172
210
123
238
8
176
177
47
38
41
118
128
286
250
83
280
24
259
222
85
87
200
149
32
223
133
191
148
119
49
115
161
33
201
213
101
12
130
218
139
190
109
220
187
272
4
267
253
236
52
245
165
194
105
113
184
282
214
217

> <PUBCHEM_MMFF94_PARTIAL_CHARGES>
27
1 -0.43
10 0.42
11 0.2
12 -0.14
13 0.14
14 0.14
15 0.66
16 -0.15
17 -0.15
18 -0.15
19 -0.15
2 -0.57
20 -0.15
25 0.15
26 0.15
3 0.14
4 0.14
40 0.15
41 0.15
42 0.15
43 0.15
44 0.15
5 -0.28
6 -0.29
7 -0.29
8 0.14
9 -0.28

> <PUBCHEM_EFFECTIVE_ROTOR_COUNT>
8

> <PUBCHEM_PHARMACOPHORE_FEATURES>
5
1 2 acceptor
1 8 hydrophobe
3 9 13 14 hydrophobe
4 3 4 5 6 hydrophobe
6 12 16 17 18 19 20 rings

> <PUBCHEM_HEAVY_ATOM_COUNT>
20

> <PUBCHEM_ATOM_DEF_STEREO_COUNT>
0

> <PUBCHEM_ATOM_UDEF_STEREO_COUNT>
0

> <PUBCHEM_BOND_DEF_STEREO_COUNT>
1

> <PUBCHEM_BOND_UDEF_STEREO_COUNT>
0

> <PUBCHEM_ISOTOPIC_ATOM_COUNT>
0

> <PUBCHEM_COMPONENT_COUNT>
1

> <PUBCHEM_CACTVS_TAUTO_COUNT>
1

> <PUBCHEM_CONFORMER_ID>
0062361600000001

> <PUBCHEM_MMFF94_ENERGY>
28.9937

> <PUBCHEM_FEATURE_SELFOVERLAP>
25.374

> <PUBCHEM_SHAPE_FINGERPRINT>
10087517 78 18335698385845972804
10595046 47 18263078967494919950
12107183 9 18118392952564369722
12596602 18 17385444362250106785
13073987 5 18333730251685276266
13167372 99 18334574651309178200
13177829 73 18335419067090212896
14251757 5 18343303665152576689
14251764 38 18264492956507017324
14251764 75 17982460287415900977
14508225 48 17912349125522759671
14598715 104 17916851548170530664
14950920 106 13046239251236381077
155225 5 18340770329832608465
16079462 125 17632568384143884890
16126227 98 18272094851817125209
17844677 252 18337678628142150878
17959699 21 18409732859083256818
20765182 5 18335703861934966013
21033650 10 18264796366039652646
21315763 129 18268428104548665636
2748736 6 18264480690323123517
441001 317 18410855485929841491
44249763 50 17631434813056127426
445580 37 18338248145279935756
5104073 3 17822005458701850482
5283173 99 18341891917860343512
6299153 45 18190173499889427738
6327066 14 18264764373266075589
6700243 42 17624735565891491519
7062679 6 18408326596380033268
7808743 9 18410008811011658105
9981440 41 18335144168067817771

> <PUBCHEM_SHAPE_MULTIPOLES>
399.85
16.08
3.77
0.97
11.19
0.92
-0.04
9.83
-0.77
-8.2
-0.4
0.62
0.13
-0.89

> <PUBCHEM_SHAPE_SELFOVERLAP>
797.769

> <PUBCHEM_SHAPE_VOLUME>
236.3

> <PUBCHEM_COORDINATE_TYPE>
2
5
10

$$$$
