6436330
  -OEChem-11232109103D

 32 31  0     0  0  0  0  0  0999 V2000
   -1.6731   -1.5583    0.4098 O   0  0  0  0  0  0  0  0  0  0  0  0
    1.8825   -0.1831   -1.1612 C   0  0  0  0  0  0  0  0  0  0  0  0
    1.2960    1.2331   -1.2270 C   0  0  0  0  0  0  0  0  0  0  0  0
    1.7344   -0.8425    0.1941 C   0  0  0  0  0  0  0  0  0  0  0  0
   -0.1793    1.2619   -0.9369 C   0  0  0  0  0  0  0  0  0  0  0  0
    0.6901   -1.6075    0.5680 C   0  0  0  0  0  0  0  0  0  0  0  0
   -0.8099    1.8313    0.1074 C   0  0  0  0  0  0  0  0  0  0  0  0
    2.8501   -0.5620    1.1681 C   0  0  0  0  0  0  0  0  0  0  0  0
   -0.4968   -2.0074   -0.2494 C   0  0  0  0  0  0  0  0  0  0  0  0
   -2.3083    1.7457    0.2291 C   0  0  0  0  0  0  0  0  0  0  0  0
   -0.1421    2.5958    1.2147 C   0  0  0  0  0  0  0  0  0  0  0  0
   -2.8437   -1.9069   -0.3167 C   0  0  0  0  0  0  0  0  0  0  0  0
    1.4281   -0.8060   -1.9412 H   0  0  0  0  0  0  0  0  0  0  0  0
    2.9470   -0.1403   -1.4260 H   0  0  0  0  0  0  0  0  0  0  0  0
    1.4471    1.6270   -2.2398 H   0  0  0  0  0  0  0  0  0  0  0  0
    1.8629    1.8948   -0.5665 H   0  0  0  0  0  0  0  0  0  0  0  0
   -0.7884    0.7565   -1.6854 H   0  0  0  0  0  0  0  0  0  0  0  0
    0.6928   -2.0165    1.5779 H   0  0  0  0  0  0  0  0  0  0  0  0
    2.9424    0.5151    1.3409 H   0  0  0  0  0  0  0  0  0  0  0  0
    3.8005   -0.9340    0.7717 H   0  0  0  0  0  0  0  0  0  0  0  0
    2.6870   -1.0397    2.1399 H   0  0  0  0  0  0  0  0  0  0  0  0
   -0.5180   -3.1017   -0.3160 H   0  0  0  0  0  0  0  0  0  0  0  0
   -0.4680   -1.6122   -1.2676 H   0  0  0  0  0  0  0  0  0  0  0  0
   -2.7434    2.7502    0.2578 H   0  0  0  0  0  0  0  0  0  0  0  0
   -2.7669    1.2128   -0.6102 H   0  0  0  0  0  0  0  0  0  0  0  0
   -2.5848    1.2214    1.1496 H   0  0  0  0  0  0  0  0  0  0  0  0
   -0.4038    2.1554    2.1829 H   0  0  0  0  0  0  0  0  0  0  0  0
    0.9474    2.6017    1.1524 H   0  0  0  0  0  0  0  0  0  0  0  0
   -0.4798    3.6375    1.2089 H   0  0  0  0  0  0  0  0  0  0  0  0
   -3.7129   -1.5389    0.2349 H   0  0  0  0  0  0  0  0  0  0  0  0
   -2.9255   -2.9938   -0.4135 H   0  0  0  0  0  0  0  0  0  0  0  0
   -2.8353   -1.4396   -1.3061 H   0  0  0  0  0  0  0  0  0  0  0  0
  1  9  1  0  0  0  0
  1 12  1  0  0  0  0
  2  3  1  0  0  0  0
  2  4  1  0  0  0  0
  2 13  1  0  0  0  0
  2 14  1  0  0  0  0
  3  5  1  0  0  0  0
  3 15  1  0  0  0  0
  3 16  1  0  0  0  0
  4  6  2  0  0  0  0
  4  8  1  0  0  0  0
  5  7  2  0  0  0  0
  5 17  1  0  0  0  0
  6  9  1  0  0  0  0
  6 18  1  0  0  0  0
  7 10  1  0  0  0  0
  7 11  1  0  0  0  0
  8 19  1  0  0  0  0
  8 20  1  0  0  0  0
  8 21  1  0  0  0  0
  9 22  1  0  0  0  0
  9 23  1  0  0  0  0
 10 24  1  0  0  0  0
 10 25  1  0  0  0  0
 10 26  1  0  0  0  0
 11 27  1  0  0  0  0
 11 28  1  0  0  0  0
 11 29  1  0  0  0  0
 12 30  1  0  0  0  0
 12 31  1  0  0  0  0
 12 32  1  0  0  0  0
M  END
> <PUBCHEM_COMPOUND_CID>
6436330

> <PUBCHEM_CONFORMER_RMSD>
0.6

> <PUBCHEM_CONFORMER_DIVERSEORDER>
4
151
174
149
25
120
50
35
135
178
1
187
171
52
87
63
105
154
42
141
56
36
155
101
145
59
108
159
206
194
117
46
20
150
212
73
175
167
41
131
112
164
173
9
157
193
44
127
97
71
94
88
110
207
32
183
26
28
134
153
144
80
168
125
11
49
53
158
68
89
69
66
195
136
37
209
27
121
43
156
65
138
31
82
3
39
58
47
104
201
128
172
6
169
92
208
170
181
5
83
90
113
214
45
142
116
7
40
133
102
99
163
211
126
21
204
203
48
55
61
215
132
165
213
185
140
85
137
122
118
19
139
114
2
184
189
96
17
78
57
12
81
152
182
75
200
34
18
54
111
191
74
95
98
8
33
13
30
22
51
123
162
62
202
179
107
216
119
210
76
16
180
84
199
106
93
23
161
190
100
160
124
143
10
129
14
67
198
15
146
177
103
147
130
60
72
86
29
64
186
109
166
24
192
196
77
176
79
188
70
91
115
205
197
38
148

> <PUBCHEM_MMFF94_PARTIAL_CHARGES>
14
1 -0.56
10 0.14
11 0.14
12 0.28
17 0.15
18 0.15
2 0.14
3 0.14
4 -0.28
5 -0.29
6 -0.29
7 -0.28
8 0.14
9 0.42

> <PUBCHEM_EFFECTIVE_ROTOR_COUNT>
5

> <PUBCHEM_PHARMACOPHORE_FEATURES>
4
1 1 acceptor
1 8 hydrophobe
3 7 10 11 hydrophobe
4 2 3 4 5 hydrophobe

> <PUBCHEM_HEAVY_ATOM_COUNT>
12

> <PUBCHEM_ATOM_DEF_STEREO_COUNT>
0

> <PUBCHEM_ATOM_UDEF_STEREO_COUNT>
0

> <PUBCHEM_BOND_DEF_STEREO_COUNT>
1

> <PUBCHEM_BOND_UDEF_STEREO_COUNT>
0

> <PUBCHEM_ISOTOPIC_ATOM_COUNT>
0

> <PUBCHEM_COMPONENT_COUNT>
1

> <PUBCHEM_CACTVS_TAUTO_COUNT>
1

> <PUBCHEM_CONFORMER_ID>
006235EA00000004

> <PUBCHEM_MMFF94_ENERGY>
12.9927

> <PUBCHEM_FEATURE_SELFOVERLAP>
20.304

> <PUBCHEM_SHAPE_FINGERPRINT>
11086676 242 18262531380470335019
12423570 1 8644788845205821572
13380536 167 18260558835224841500
14251711 518 18263661682650187843
14617773 55 18335147500719209182
14817 1 12368155668136068524
15881359 60 17533770507998504845
16945 1 18190738631121726076
20388701 513 18340476837647257450
21922407 69 16689588471057159908
23419403 2 17615355584976192620
2897 32 18189630491083851061
305870 269 17112678853092095066
353137 74 17899999397084553084
66348 1 17905902718179896387

> <PUBCHEM_SHAPE_MULTIPOLES>
241.09
3.45
3.1
1.23
0.12
0.51
0.07
0.63
-0.57
-2.21
-0.37
0.56
-0.51
-0.55

> <PUBCHEM_SHAPE_SELFOVERLAP>
445.534

> <PUBCHEM_SHAPE_VOLUME>
153.5

> <PUBCHEM_COORDINATE_TYPE>
2
5
10

$$$$
