6436881
  -OEChem-11232109453D

 33 32  0     0  0  0  0  0  0999 V2000
   -2.6473    2.8281    0.6100 O   0  0  0  0  0  0  0  0  0  0  0  0
    0.5215   -1.4859    0.5616 C   0  0  0  0  0  0  0  0  0  0  0  0
    1.3130   -0.9770   -0.6506 C   0  0  0  0  0  0  0  0  0  0  0  0
   -0.7855   -2.1620    0.1946 C   0  0  0  0  0  0  0  0  0  0  0  0
   -1.9294   -1.4507    0.1686 C   0  0  0  0  0  0  0  0  0  0  0  0
   -2.1015    0.0132    0.4656 C   0  0  0  0  0  0  0  0  0  0  0  0
    2.6463   -0.3964   -0.2638 C   0  0  0  0  0  0  0  0  0  0  0  0
   -0.6892   -3.6303   -0.1155 C   0  0  0  0  0  0  0  0  0  0  0  0
   -2.7216    0.7798   -0.6998 C   0  0  0  0  0  0  0  0  0  0  0  0
    2.9579    0.8947   -0.0425 C   0  0  0  0  0  0  0  0  0  0  0  0
    4.3643    1.2855    0.3265 C   0  0  0  0  0  0  0  0  0  0  0  0
    1.9957    2.0457   -0.1168 C   0  0  0  0  0  0  0  0  0  0  0  0
   -2.9244    2.2551   -0.4380 C   0  0  0  0  0  0  0  0  0  0  0  0
    0.3773   -0.6804    1.2896 H   0  0  0  0  0  0  0  0  0  0  0  0
    1.1378   -2.2162    1.1058 H   0  0  0  0  0  0  0  0  0  0  0  0
    0.7173   -0.2456   -1.2082 H   0  0  0  0  0  0  0  0  0  0  0  0
    1.4958   -1.8007   -1.3522 H   0  0  0  0  0  0  0  0  0  0  0  0
   -2.8473   -1.9780   -0.0874 H   0  0  0  0  0  0  0  0  0  0  0  0
   -1.1678    0.5088    0.7411 H   0  0  0  0  0  0  0  0  0  0  0  0
   -2.7551    0.1040    1.3426 H   0  0  0  0  0  0  0  0  0  0  0  0
    3.4364   -1.1389   -0.1561 H   0  0  0  0  0  0  0  0  0  0  0  0
   -1.6649   -4.0515   -0.3795 H   0  0  0  0  0  0  0  0  0  0  0  0
   -0.0132   -3.8010   -0.9591 H   0  0  0  0  0  0  0  0  0  0  0  0
   -0.3125   -4.1801    0.7529 H   0  0  0  0  0  0  0  0  0  0  0  0
   -3.7017    0.3601   -0.9542 H   0  0  0  0  0  0  0  0  0  0  0  0
   -2.0826    0.6965   -1.5869 H   0  0  0  0  0  0  0  0  0  0  0  0
    5.0401    0.4248    0.3690 H   0  0  0  0  0  0  0  0  0  0  0  0
    4.3786    1.7674    1.3097 H   0  0  0  0  0  0  0  0  0  0  0  0
    4.7678    1.9874   -0.4108 H   0  0  0  0  0  0  0  0  0  0  0  0
    2.2897    2.7324   -0.9172 H   0  0  0  0  0  0  0  0  0  0  0  0
    0.9660    1.7332   -0.3071 H   0  0  0  0  0  0  0  0  0  0  0  0
    1.9942    2.5978    0.8291 H   0  0  0  0  0  0  0  0  0  0  0  0
   -3.3598    2.8185   -1.2815 H   0  0  0  0  0  0  0  0  0  0  0  0
  1 13  2  0  0  0  0
  2  3  1  0  0  0  0
  2  4  1  0  0  0  0
  2 14  1  0  0  0  0
  2 15  1  0  0  0  0
  3  7  1  0  0  0  0
  3 16  1  0  0  0  0
  3 17  1  0  0  0  0
  4  5  2  0  0  0  0
  4  8  1  0  0  0  0
  5  6  1  0  0  0  0
  5 18  1  0  0  0  0
  6  9  1  0  0  0  0
  6 19  1  0  0  0  0
  6 20  1  0  0  0  0
  7 10  2  0  0  0  0
  7 21  1  0  0  0  0
  8 22  1  0  0  0  0
  8 23  1  0  0  0  0
  8 24  1  0  0  0  0
  9 13  1  0  0  0  0
  9 25  1  0  0  0  0
  9 26  1  0  0  0  0
 10 11  1  0  0  0  0
 10 12  1  0  0  0  0
 11 27  1  0  0  0  0
 11 28  1  0  0  0  0
 11 29  1  0  0  0  0
 12 30  1  0  0  0  0
 12 31  1  0  0  0  0
 12 32  1  0  0  0  0
 13 33  1  0  0  0  0
M  END
> <PUBCHEM_COMPOUND_CID>
6436881

> <PUBCHEM_CONFORMER_RMSD>
0.6

> <PUBCHEM_CONFORMER_DIVERSEORDER>
3
417
433
88
463
315
181
17
215
35
407
466
228
479
408
304
184
142
416
435
141
195
125
328
398
99
468
110
117
443
371
79
306
337
168
475
476
243
260
83
40
204
473
212
284
480
223
269
356
339
235
419
198
146
301
114
82
410
456
173
329
298
471
164
288
73
360
299
81
483
382
279
385
47
170
134
478
253
188
275
448
237
272
377
100
390
55
5
427
246
51
63
442
349
133
29
208
137
71
412
292
120
273
365
221
139
153
300
392
286
116
368
404
97
156
342
239
54
348
41
256
202
402
18
123
287
455
77
314
379
236
459
334
28
307
57
282
258
229
394
232
244
295
50
449
415
399
101
158
67
190
154
344
357
6
105
470
78
430
231
422
75
438
313
482
25
171
276
210
440
401
414
201
176
437
333
322
149
119
90
24
62
46
396
302
424
218
309
338
303
406
23
359
305
94
15
251
19
112
451
372
403
13
216
330
467
32
140
464
423
39
45
369
194
245
472
255
341
136
219
56
261
69
444
143
391
367
323
469
183
447
33
37
378
252
129
167
43
96
84
52
80
347
241
85
115
353
267
316
191
326
265
285
27
283
409
16
103
325
310
48
234
418
66
108
121
477
217
319
461
53
248
318
268
72
388
91
320
174
343
126
465
249
12
312
436
68
327
70
352
49
340
308
420
64
61
425
187
363
345
250
271
370
38
118
205
65
397
431
89
200
291
182
336
11
109
376
189
177
102
280
373
293
36
30
98
21
166
457
445
122
180
225
157
22
86
58
474
324
432
111
9
132
14
95
429
160
144
10
441
346
450
44
278
1
162
127
413
384
242
199
233
8
59
351
196
131
281
192
331
358
381
290
362
222
421
366
350
317
257
107
26
434
178
74
439
274
395
220
458
462
387
60
155
405
259
34
294
2
211
151
355
481
147
165
454
104
172
386
296
226
206
332
214
113
193
224
128
361
92
93
460
185
227
7
240
452
254
400
428
297
4
374
209
31
270
145
169
76
20
289
138
247
186
383
375
87
179
321
130
354
161
148
152
364
197
446
262
150
277
230
389
135
207
264
335
393
163
263
213
159
266
426
453
311
203
124
411
238
175
106
42
380

> <PUBCHEM_MMFF94_PARTIAL_CHARGES>
16
1 -0.57
10 -0.28
11 0.14
12 0.14
13 0.45
18 0.15
2 0.14
21 0.15
3 0.14
33 0.06
4 -0.28
5 -0.29
6 0.14
7 -0.29
8 0.14
9 0.06

> <PUBCHEM_EFFECTIVE_ROTOR_COUNT>
6

> <PUBCHEM_PHARMACOPHORE_FEATURES>
4
1 1 acceptor
1 8 hydrophobe
3 10 11 12 hydrophobe
4 2 3 4 7 hydrophobe

> <PUBCHEM_HEAVY_ATOM_COUNT>
13

> <PUBCHEM_ATOM_DEF_STEREO_COUNT>
0

> <PUBCHEM_ATOM_UDEF_STEREO_COUNT>
0

> <PUBCHEM_BOND_DEF_STEREO_COUNT>
1

> <PUBCHEM_BOND_UDEF_STEREO_COUNT>
0

> <PUBCHEM_ISOTOPIC_ATOM_COUNT>
0

> <PUBCHEM_COMPONENT_COUNT>
1

> <PUBCHEM_CACTVS_TAUTO_COUNT>
2

> <PUBCHEM_CONFORMER_ID>
0062381100000003

> <PUBCHEM_MMFF94_ENERGY>
9.2177

> <PUBCHEM_FEATURE_SELFOVERLAP>
20.3

> <PUBCHEM_SHAPE_FINGERPRINT>
10149128 76 18410855417183763631
13618510 140 18337951194955944917
1741750 31 18410291402210471298
17802600 8 18196650924403692522
18219364 16 18263938635179485689
20304884 271 18339082584036278341
20510252 161 18340491157231687651
20605781 55 18338234864813528399
20621476 13 17542493938643505005
20645477 56 18270129031699048354
20671657 1 17978510828314991287
21524375 3 18188208697995513619
21639500 275 17903062344896514613
22182937 141 18340779182054747265
2306618 200 18127985306473474698
23402539 116 18054503870753414583
23557571 272 18125168383384506670
257057 1 17473260354358421311
305870 269 18261951856190892218
3071541 12 17979074881806151079
7364860 26 17834113048444366207
8050 44 18190458264579004109
81228 2 17978529833334773307

> <PUBCHEM_SHAPE_MULTIPOLES>
261.66
6.2
3.84
0.78
5.09
0.87
0.02
-4.81
-0.1
-3.18
-0.09
-0.12
-0.05
0.22

> <PUBCHEM_SHAPE_SELFOVERLAP>
485.737

> <PUBCHEM_SHAPE_VOLUME>
164.7

> <PUBCHEM_COORDINATE_TYPE>
2
5
10

$$$$
