6436336
  -OEChem-11232108553D

 31 30  0     0  0  0  0  0  0999 V2000
   -4.2018    0.5603   -0.3167 O   0  0  0  0  0  0  0  0  0  0  0  0
   -2.3142    1.5043    0.6235 O   0  0  0  0  0  0  0  0  0  0  0  0
    3.4769    0.4255    0.3693 C   0  0  0  0  0  0  0  0  0  0  0  0
    2.5260   -0.5670   -0.3083 C   0  0  0  0  0  0  0  0  0  0  0  0
    4.1882    1.3512   -0.6211 C   0  0  0  0  0  0  0  0  0  0  0  0
    1.8211   -1.5039    0.6793 C   0  0  0  0  0  0  0  0  0  0  0  0
    5.1527    2.3226    0.0419 C   0  0  0  0  0  0  0  0  0  0  0  0
    0.9051   -2.4915    0.0133 C   0  0  0  0  0  0  0  0  0  0  0  0
   -0.3804   -2.2354   -0.2727 C   0  0  0  0  0  0  0  0  0  0  0  0
   -1.0229   -0.9758    0.0316 C   0  0  0  0  0  0  0  0  0  0  0  0
   -2.3077   -0.7308   -0.2585 C   0  0  0  0  0  0  0  0  0  0  0  0
   -2.9011    0.5813    0.0815 C   0  0  0  0  0  0  0  0  0  0  0  0
   -4.9418    1.7592   -0.0631 C   0  0  0  0  0  0  0  0  0  0  0  0
    2.9126    1.0322    1.0882 H   0  0  0  0  0  0  0  0  0  0  0  0
    4.2273   -0.1313    0.9440 H   0  0  0  0  0  0  0  0  0  0  0  0
    1.7790   -0.0047   -0.8823 H   0  0  0  0  0  0  0  0  0  0  0  0
    3.0915   -1.1659   -1.0338 H   0  0  0  0  0  0  0  0  0  0  0  0
    3.4409    1.9225   -1.1846 H   0  0  0  0  0  0  0  0  0  0  0  0
    4.7417    0.7468   -1.3496 H   0  0  0  0  0  0  0  0  0  0  0  0
    2.5831   -2.0809    1.2202 H   0  0  0  0  0  0  0  0  0  0  0  0
    1.3085   -0.9294    1.4587 H   0  0  0  0  0  0  0  0  0  0  0  0
    5.9375    1.7847    0.5830 H   0  0  0  0  0  0  0  0  0  0  0  0
    4.6277    2.9698    0.7515 H   0  0  0  0  0  0  0  0  0  0  0  0
    5.6305    2.9576   -0.7105 H   0  0  0  0  0  0  0  0  0  0  0  0
    1.3228   -3.4563   -0.2615 H   0  0  0  0  0  0  0  0  0  0  0  0
   -0.9719   -3.0048   -0.7616 H   0  0  0  0  0  0  0  0  0  0  0  0
   -0.4384   -0.1933    0.5031 H   0  0  0  0  0  0  0  0  0  0  0  0
   -2.9383   -1.4738   -0.7364 H   0  0  0  0  0  0  0  0  0  0  0  0
   -4.4947    2.6009   -0.6004 H   0  0  0  0  0  0  0  0  0  0  0  0
   -4.9779    1.9616    1.0116 H   0  0  0  0  0  0  0  0  0  0  0  0
   -5.9621    1.6123   -0.4271 H   0  0  0  0  0  0  0  0  0  0  0  0
  1 12  1  0  0  0  0
  1 13  1  0  0  0  0
  2 12  2  0  0  0  0
  3  4  1  0  0  0  0
  3  5  1  0  0  0  0
  3 14  1  0  0  0  0
  3 15  1  0  0  0  0
  4  6  1  0  0  0  0
  4 16  1  0  0  0  0
  4 17  1  0  0  0  0
  5  7  1  0  0  0  0
  5 18  1  0  0  0  0
  5 19  1  0  0  0  0
  6  8  1  0  0  0  0
  6 20  1  0  0  0  0
  6 21  1  0  0  0  0
  7 22  1  0  0  0  0
  7 23  1  0  0  0  0
  7 24  1  0  0  0  0
  8  9  2  0  0  0  0
  8 25  1  0  0  0  0
  9 10  1  0  0  0  0
  9 26  1  0  0  0  0
 10 11  2  0  0  0  0
 10 27  1  0  0  0  0
 11 12  1  0  0  0  0
 11 28  1  0  0  0  0
 13 29  1  0  0  0  0
 13 30  1  0  0  0  0
 13 31  1  0  0  0  0
M  END
> <PUBCHEM_COMPOUND_CID>
6436336

> <PUBCHEM_CONFORMER_RMSD>
0.8

> <PUBCHEM_CONFORMER_DIVERSEORDER>
1
12
74
58
37
73
14
63
80
28
65
2
57
67
10
84
26
76
56
18
48
16
72
36
31
70
82
13
42
23
39
17
71
79
3
41
75
6
78
86
55
62
27
33
61
9
68
60
11
38
51
34
35
83
85
15
46
8
59
66
64
22
44
25
30
20
54
4
43
77
81
19
40
21
53
47
7
69
29
50
52
24
45
5
32
49

> <PUBCHEM_MMFF94_PARTIAL_CHARGES>
13
1 -0.43
10 -0.15
11 -0.14
12 0.71
13 0.28
2 -0.57
25 0.15
26 0.15
27 0.15
28 0.15
6 0.14
8 -0.29
9 -0.15

> <PUBCHEM_EFFECTIVE_ROTOR_COUNT>
7

> <PUBCHEM_PHARMACOPHORE_FEATURES>
3
1 2 acceptor
1 7 hydrophobe
5 3 4 5 6 8 hydrophobe

> <PUBCHEM_HEAVY_ATOM_COUNT>
13

> <PUBCHEM_ATOM_DEF_STEREO_COUNT>
0

> <PUBCHEM_ATOM_UDEF_STEREO_COUNT>
0

> <PUBCHEM_BOND_DEF_STEREO_COUNT>
2

> <PUBCHEM_BOND_UDEF_STEREO_COUNT>
0

> <PUBCHEM_ISOTOPIC_ATOM_COUNT>
0

> <PUBCHEM_COMPONENT_COUNT>
1

> <PUBCHEM_CACTVS_TAUTO_COUNT>
1

> <PUBCHEM_CONFORMER_ID>
006235F000000001

> <PUBCHEM_MMFF94_ENERGY>
12.9357

> <PUBCHEM_FEATURE_SELFOVERLAP>
15.223

> <PUBCHEM_SHAPE_FINGERPRINT>
10498660 4 18413110567119646352
10681291 71 18338809978124920408
11046707 91 9367083150671723358
122479 349 18261677064367916970
12633257 1 15357983407896613012
13618510 140 18411702080002859906
14123255 352 18410012178171221908
14123255 52 18410012156511554748
14251732 14 16988264487494322261
14251764 38 17829032231114638573
14251764 75 18340499914480931761
14774955 27 18336259059862177837
15342168 16 18407758123204099711
1741750 31 18338797931121762170
17834072 32 18338237171438183356
1798214 55 18410294722394309732
193927 3 10952051181991481364
20621476 66 18262804090221089300
20621476 91 17314534676159246097
20671657 1 18265618684604618526
20767249 142 9871747996714877324
21354914 76 9367047970341335799
21499 59 18411132520121585735
21524375 3 18412258415760003562
22620623 9 16486110955536255415
22959321 54 18339925913744507737
23403322 49 9943536201666151492
23590187 49 18410011069832191796
270888 7 18410291428080988924
328317 168 18411696595356035741
351380 3 9655581816124349284
44154327 71 18409166584693500340
449060 62 18340486656132341483
474 4 18336263440459833235
59345606 38 18409729581738405772
8199 26 18411138052097049786

> <PUBCHEM_SHAPE_MULTIPOLES>
255.8
10.44
2.85
0.73
0.77
0.46
-0.01
-11.34
0.57
1.04
-0.02
0.19
0.01
-0.4

> <PUBCHEM_SHAPE_SELFOVERLAP>
476.566

> <PUBCHEM_SHAPE_VOLUME>
160.4

> <PUBCHEM_COORDINATE_TYPE>
2
5
10

$$$$
