6437737
  -OEChem-11232109193D

 30 32  0     1  0  0  0  0  0999 V2000
   -1.9073   -0.9796   -0.1906 O   0  0  0  0  0  0  0  0  0  0  0  0
   -4.1167   -0.5013   -0.2338 O   0  0  0  0  0  0  0  0  0  0  0  0
    0.9541    0.6159    0.8792 C   0  0  1  0  0  0  0  0  0  0  0  0
    0.4337   -1.4586    0.2152 C   0  0  2  0  0  0  0  0  0  0  0  0
   -0.1825    0.8567   -0.1389 C   0  0  1  0  0  0  0  0  0  0  0  0
   -0.5730   -0.5784   -0.5678 C   0  0  2  0  0  0  0  0  0  0  0  0
    0.5379   -0.6982    1.5438 C   0  0  0  0  0  0  0  0  0  0  0  0
    1.8537   -1.2801   -0.3574 C   0  0  0  0  0  0  0  0  0  0  0  0
    2.1537    0.1283    0.0930 C   0  0  0  0  0  0  0  0  0  0  0  0
   -1.3612    1.6318    0.4279 C   0  0  0  0  0  0  0  0  0  0  0  0
   -2.5876    1.3335   -0.4123 C   0  0  0  0  0  0  0  0  0  0  0  0
    3.2872    0.8006   -0.1240 C   0  0  0  0  0  0  0  0  0  0  0  0
   -2.9517   -0.1179   -0.2706 C   0  0  0  0  0  0  0  0  0  0  0  0
    4.4597    0.2471   -0.8640 C   0  0  0  0  0  0  0  0  0  0  0  0
    1.1554    1.4436    1.5623 H   0  0  0  0  0  0  0  0  0  0  0  0
    0.1237   -2.5010    0.3209 H   0  0  0  0  0  0  0  0  0  0  0  0
    0.2040    1.4011   -1.0118 H   0  0  0  0  0  0  0  0  0  0  0  0
   -0.4743   -0.7280   -1.6489 H   0  0  0  0  0  0  0  0  0  0  0  0
    1.3002   -1.1108    2.2154 H   0  0  0  0  0  0  0  0  0  0  0  0
   -0.4134   -0.6354    2.0815 H   0  0  0  0  0  0  0  0  0  0  0  0
    1.8698   -1.3908   -1.4455 H   0  0  0  0  0  0  0  0  0  0  0  0
    2.5445   -1.9924    0.1064 H   0  0  0  0  0  0  0  0  0  0  0  0
   -1.1407    2.7052    0.4174 H   0  0  0  0  0  0  0  0  0  0  0  0
   -1.5496    1.3566    1.4728 H   0  0  0  0  0  0  0  0  0  0  0  0
   -2.4288    1.5626   -1.4710 H   0  0  0  0  0  0  0  0  0  0  0  0
   -3.4270    1.9362   -0.0489 H   0  0  0  0  0  0  0  0  0  0  0  0
    3.3879    1.8094    0.2675 H   0  0  0  0  0  0  0  0  0  0  0  0
    4.6830    0.8821   -1.7271 H   0  0  0  0  0  0  0  0  0  0  0  0
    4.3052   -0.7718   -1.2287 H   0  0  0  0  0  0  0  0  0  0  0  0
    5.3380    0.2407   -0.2107 H   0  0  0  0  0  0  0  0  0  0  0  0
  1  6  1  0  0  0  0
  1 13  1  0  0  0  0
  2 13  2  0  0  0  0
  3  5  1  0  0  0  0
  3  7  1  0  0  0  0
  3  9  1  0  0  0  0
  3 15  1  0  0  0  0
  4  6  1  0  0  0  0
  4  7  1  0  0  0  0
  4  8  1  0  0  0  0
  4 16  1  0  0  0  0
  5  6  1  0  0  0  0
  5 10  1  0  0  0  0
  5 17  1  0  0  0  0
  6 18  1  0  0  0  0
  7 19  1  0  0  0  0
  7 20  1  0  0  0  0
  8  9  1  0  0  0  0
  8 21  1  0  0  0  0
  8 22  1  0  0  0  0
  9 12  2  0  0  0  0
 10 11  1  0  0  0  0
 10 23  1  0  0  0  0
 10 24  1  0  0  0  0
 11 13  1  0  0  0  0
 11 25  1  0  0  0  0
 11 26  1  0  0  0  0
 12 14  1  0  0  0  0
 12 27  1  0  0  0  0
 14 28  1  0  0  0  0
 14 29  1  0  0  0  0
 14 30  1  0  0  0  0
M  END
> <PUBCHEM_COMPOUND_CID>
6437737

> <PUBCHEM_CONFORMER_RMSD>
0.4

> <PUBCHEM_CONFORMER_DIVERSEORDER>
1
3
2
4
5
6
7
8

> <PUBCHEM_MMFF94_PARTIAL_CHARGES>
11
1 -0.43
11 0.06
12 -0.29
13 0.66
14 0.14
2 -0.57
27 0.15
3 0.14
6 0.28
8 0.14
9 -0.28

> <PUBCHEM_EFFECTIVE_ROTOR_COUNT>
1

> <PUBCHEM_PHARMACOPHORE_FEATURES>
4
1 14 hydrophobe
1 2 acceptor
6 1 5 6 10 11 13 rings
7 3 4 5 6 7 8 9 rings

> <PUBCHEM_HEAVY_ATOM_COUNT>
14

> <PUBCHEM_ATOM_DEF_STEREO_COUNT>
0

> <PUBCHEM_ATOM_UDEF_STEREO_COUNT>
4

> <PUBCHEM_BOND_DEF_STEREO_COUNT>
1

> <PUBCHEM_BOND_UDEF_STEREO_COUNT>
0

> <PUBCHEM_ISOTOPIC_ATOM_COUNT>
0

> <PUBCHEM_COMPONENT_COUNT>
1

> <PUBCHEM_CACTVS_TAUTO_COUNT>
1

> <PUBCHEM_CONFORMER_ID>
00623B6900000001

> <PUBCHEM_MMFF94_ENERGY>
40.0971

> <PUBCHEM_FEATURE_SELFOVERLAP>
20.319

> <PUBCHEM_SHAPE_FINGERPRINT>
10219947 1 14562526271705424898
12119455 92 14851597808670094064
12138202 97 17895483621415003794
12423570 1 11156771618609957090
124424 183 10159697980152896205
12491281 212 18340498754881264664
12897270 3 18342736312646524220
12932764 1 17131534081939357925
13024252 1 17968668223566396322
13221675 6 18413385458043127215
13380535 21 18198348364130139073
13380535 76 18335141990471593970
13571099 52 15357969015260555797
14943859 89 18334013921521461562
14993402 34 17894351107237147020
15775835 57 18114181891416751724
15852999 172 14490474157972219625
16945 1 18201144520772662306
17844478 74 18410579487505691425
1813 80 13398364494515259248
18186145 218 18059858363705179304
18511873 20 10735876179353166533
19422 9 18339360751666729019
200 152 16343712006606190420
20361792 2 14117512113059505872
20653085 51 18335712671413445360
21501502 16 18268711597643131811
21524375 3 18113337522706030484
22094290 60 17704357653936214373
23236772 104 18186802457083313129
23402539 116 18337101354456778558
23402655 69 18341602677994296261
23419403 2 17463721996588271153
23552423 10 18192989310007099107
23559900 14 17912923886409332846
265663 24 17822286877733073082
2748010 2 18269826519903696725
296302 2 14490471988876344205
353137 74 18408884005725558825
4990 188 17917716798731922356
528886 8 18341889723031841058
53812653 8 18335977610201440683
57096353 35 18409162220879939127
57177213 63 18261955146061676050
57812782 119 10665225951582379567
7364860 26 18194395594206537418

> <PUBCHEM_SHAPE_MULTIPOLES>
276.37
5.99
1.47
0.97
1.11
0.05
0.26
0.82
-1.95
-0.3
0.05
0.29
-0.07
-0.11

> <PUBCHEM_SHAPE_SELFOVERLAP>
598.978

> <PUBCHEM_SHAPE_VOLUME>
155.7

> <PUBCHEM_COORDINATE_TYPE>
2
5
10

$$$$
