6437544
  -OEChem-11232109123D

 45 44  0     0  0  0  0  0  0999 V2000
    5.5993    0.4256    0.0839 O   0  0  0  0  0  0  0  0  0  0  0  0
    7.7389    0.5595   -0.7772 O   0  0  0  0  0  0  0  0  0  0  0  0
   -3.3842   -0.6615    0.2430 C   0  0  0  0  0  0  0  0  0  0  0  0
   -4.5280    0.2982   -0.1029 C   0  0  0  0  0  0  0  0  0  0  0  0
   -1.9953   -0.0626    0.0089 C   0  0  0  0  0  0  0  0  0  0  0  0
   -5.9456   -0.2313    0.1356 C   0  0  0  0  0  0  0  0  0  0  0  0
   -0.8537   -1.0260    0.3536 C   0  0  0  0  0  0  0  0  0  0  0  0
   -7.0423    0.7467   -0.2902 C   0  0  0  0  0  0  0  0  0  0  0  0
    0.5374   -0.4037    0.1920 C   0  0  0  0  0  0  0  0  0  0  0  0
   -8.4305    0.2060    0.0555 C   0  0  0  0  0  0  0  0  0  0  0  0
    1.6697   -1.3792    0.5323 C   0  0  0  0  0  0  0  0  0  0  0  0
   -9.5272    1.1583   -0.3941 C   0  0  0  0  0  0  0  0  0  0  0  0
    3.0343   -0.7766    0.3527 C   0  0  0  0  0  0  0  0  0  0  0  0
    3.9808   -1.3025   -0.4398 C   0  0  0  0  0  0  0  0  0  0  0  0
    5.3591   -0.7572   -0.6629 C   0  0  0  0  0  0  0  0  0  0  0  0
    6.8389    0.9859   -0.0663 C   0  0  0  0  0  0  0  0  0  0  0  0
    6.9483    2.2207    0.7760 C   0  0  0  0  0  0  0  0  0  0  0  0
   -3.4906   -1.5744   -0.3557 H   0  0  0  0  0  0  0  0  0  0  0  0
   -3.4759   -0.9602    1.2944 H   0  0  0  0  0  0  0  0  0  0  0  0
   -4.3992    1.2214    0.4766 H   0  0  0  0  0  0  0  0  0  0  0  0
   -4.4343    0.5824   -1.1590 H   0  0  0  0  0  0  0  0  0  0  0  0
   -1.9035    0.2421   -1.0408 H   0  0  0  0  0  0  0  0  0  0  0  0
   -1.8920    0.8471    0.6132 H   0  0  0  0  0  0  0  0  0  0  0  0
   -6.0715   -1.1745   -0.4102 H   0  0  0  0  0  0  0  0  0  0  0  0
   -6.0580   -0.4657    1.2015 H   0  0  0  0  0  0  0  0  0  0  0  0
   -0.9728   -1.3682    1.3891 H   0  0  0  0  0  0  0  0  0  0  0  0
   -0.9300   -1.9148   -0.2848 H   0  0  0  0  0  0  0  0  0  0  0  0
   -6.8896    1.7103    0.2106 H   0  0  0  0  0  0  0  0  0  0  0  0
   -6.9708    0.9281   -1.3693 H   0  0  0  0  0  0  0  0  0  0  0  0
    0.6127    0.4830    0.8343 H   0  0  0  0  0  0  0  0  0  0  0  0
    0.6556   -0.0552   -0.8420 H   0  0  0  0  0  0  0  0  0  0  0  0
   -8.5814   -0.7673   -0.4256 H   0  0  0  0  0  0  0  0  0  0  0  0
   -8.5106    0.0493    1.1375 H   0  0  0  0  0  0  0  0  0  0  0  0
    1.5707   -1.6948    1.5782 H   0  0  0  0  0  0  0  0  0  0  0  0
    1.5637   -2.2833   -0.0799 H   0  0  0  0  0  0  0  0  0  0  0  0
   -9.4237    2.1334    0.0925 H   0  0  0  0  0  0  0  0  0  0  0  0
  -10.5106    0.7527   -0.1364 H   0  0  0  0  0  0  0  0  0  0  0  0
   -9.4955    1.3095   -1.4778 H   0  0  0  0  0  0  0  0  0  0  0  0
    3.2398    0.1273    0.9196 H   0  0  0  0  0  0  0  0  0  0  0  0
    3.7510   -2.2123   -0.9906 H   0  0  0  0  0  0  0  0  0  0  0  0
    5.4797   -0.5424   -1.7312 H   0  0  0  0  0  0  0  0  0  0  0  0
    6.0874   -1.5234   -0.3720 H   0  0  0  0  0  0  0  0  0  0  0  0
    6.8125    1.9634    1.8294 H   0  0  0  0  0  0  0  0  0  0  0  0
    6.2012    2.9525    0.4587 H   0  0  0  0  0  0  0  0  0  0  0  0
    7.9421    2.6595    0.6494 H   0  0  0  0  0  0  0  0  0  0  0  0
  1 15  1  0  0  0  0
  1 16  1  0  0  0  0
  2 16  2  0  0  0  0
  3  4  1  0  0  0  0
  3  5  1  0  0  0  0
  3 18  1  0  0  0  0
  3 19  1  0  0  0  0
  4  6  1  0  0  0  0
  4 20  1  0  0  0  0
  4 21  1  0  0  0  0
  5  7  1  0  0  0  0
  5 22  1  0  0  0  0
  5 23  1  0  0  0  0
  6  8  1  0  0  0  0
  6 24  1  0  0  0  0
  6 25  1  0  0  0  0
  7  9  1  0  0  0  0
  7 26  1  0  0  0  0
  7 27  1  0  0  0  0
  8 10  1  0  0  0  0
  8 28  1  0  0  0  0
  8 29  1  0  0  0  0
  9 11  1  0  0  0  0
  9 30  1  0  0  0  0
  9 31  1  0  0  0  0
 10 12  1  0  0  0  0
 10 32  1  0  0  0  0
 10 33  1  0  0  0  0
 11 13  1  0  0  0  0
 11 34  1  0  0  0  0
 11 35  1  0  0  0  0
 12 36  1  0  0  0  0
 12 37  1  0  0  0  0
 12 38  1  0  0  0  0
 13 14  2  0  0  0  0
 13 39  1  0  0  0  0
 14 15  1  0  0  0  0
 14 40  1  0  0  0  0
 15 41  1  0  0  0  0
 15 42  1  0  0  0  0
 16 17  1  0  0  0  0
 17 43  1  0  0  0  0
 17 44  1  0  0  0  0
 17 45  1  0  0  0  0
M  END
> <PUBCHEM_COMPOUND_CID>
6437544

> <PUBCHEM_CONFORMER_RMSD>
1.2

> <PUBCHEM_CONFORMER_DIVERSEORDER>
1
100
31
51
4
10
479
88
29
312
16
165
132
77
336
13
486
224
115
76
484
7
138
85
292
37
193
198
443
213
227
63
458
3
140
15
278
20
43
244
498
52
323
376
133
231
493
48
406
50
223
105
172
294
42
44
516
390
91
139
27
397
25
251
153
64
375
169
23
185
54
159
176
235
408
35
8
124
470
267
2
112
415
463
377
17
57
519
101
280
338
358
178
49
378
371
355
512
40
503

> <PUBCHEM_MMFF94_PARTIAL_CHARGES>
10
1 -0.43
11 0.14
13 -0.29
14 -0.29
15 0.42
16 0.66
17 0.06
2 -0.57
39 0.15
40 0.15

> <PUBCHEM_EFFECTIVE_ROTOR_COUNT>
12

> <PUBCHEM_PHARMACOPHORE_FEATURES>
2
1 12 hydrophobe
1 2 acceptor

> <PUBCHEM_HEAVY_ATOM_COUNT>
17

> <PUBCHEM_ATOM_DEF_STEREO_COUNT>
0

> <PUBCHEM_ATOM_UDEF_STEREO_COUNT>
0

> <PUBCHEM_BOND_DEF_STEREO_COUNT>
1

> <PUBCHEM_BOND_UDEF_STEREO_COUNT>
0

> <PUBCHEM_ISOTOPIC_ATOM_COUNT>
0

> <PUBCHEM_COMPONENT_COUNT>
1

> <PUBCHEM_CACTVS_TAUTO_COUNT>
1

> <PUBCHEM_CONFORMER_ID>
00623AA800000001

> <PUBCHEM_MMFF94_ENERGY>
2.3901

> <PUBCHEM_FEATURE_SELFOVERLAP>
10.148

> <PUBCHEM_SHAPE_FINGERPRINT>
10666366 153 11383840346433561315
11211813 74 17917705824980348272
11315181 36 18273498967083751099
11638347 137 11025797587599016065
13668630 136 11743835863715271503
13685833 64 9583522018973511026
14123256 10 18410856555350110021
14216079 64 10231761084781733396
14251757 52 18410007736774053144
14251764 18 17676203581097330707
14251764 46 14056722344358476115
14598715 104 17822557353114572445
14729087 3 17603583007304844261
15048467 5 18334858320291698402
155225 1 18333452058437879132
1754911 235 18202562886810069613
1818759 1 11959728300808785797
195137 175 17917717877460031177
20281389 69 17967530147031702062
20397935 70 13551462645640472984
20554085 129 17458338654456177856
20621476 38 9223234048309098328
20735858 18 13406794423904698323
20812841 46 18260259730404575834
21130983 4 18334296465533728187
21130990 3 11170452619432975936
21130991 4 13110421027017616652
21150785 3 17418375796258705651
21267235 1 11239998958249268451
22224240 67 17385161745071051755
246663 6 12391513092304062847
28498 318 10015867574431763731
33532 11 9439407921381881696
33684 2 18202001010551057590
5758199 1 18040154003086655459
59682541 35 17821732745701003417
6025842 7 18131074797521461702
67123 10 18411981365432622335
8209 1 18413108342927895791

> <PUBCHEM_SHAPE_MULTIPOLES>
338.11
31.02
1.5
0.76
28.13
0.49
0
17.3
3.98
-2.61
-0.2
-0.51
0.02
1.07

> <PUBCHEM_SHAPE_SELFOVERLAP>
617.858

> <PUBCHEM_SHAPE_VOLUME>
214.4

> <PUBCHEM_COORDINATE_TYPE>
2
5
10

$$$$
