6437469
  -OEChem-11232108463D

 40 40  0     1  0  0  0  0  0999 V2000
    3.8813   -0.2690   -1.0290 O   0  0  0  0  0  0  0  0  0  0  0  0
   -0.9676   -0.1675   -0.1695 C   0  0  2  0  0  0  0  0  0  0  0  0
   -1.7437    1.1931   -0.0341 C   0  0  0  0  0  0  0  0  0  0  0  0
   -1.6258   -1.2894    0.6789 C   0  0  1  0  0  0  0  0  0  0  0  0
   -3.0920   -1.4937    0.2495 C   0  0  0  0  0  0  0  0  0  0  0  0
   -3.2443    0.9749   -0.1056 C   0  0  0  0  0  0  0  0  0  0  0  0
   -1.3401    2.1343   -1.1893 C   0  0  0  0  0  0  0  0  0  0  0  0
   -1.4557    1.9127    1.3013 C   0  0  0  0  0  0  0  0  0  0  0  0
    0.5008   -0.0240    0.1239 C   0  0  0  0  0  0  0  0  0  0  0  0
   -3.8371   -0.2197    0.0122 C   0  0  0  0  0  0  0  0  0  0  0  0
   -0.8885   -2.6316    0.5819 C   0  0  0  0  0  0  0  0  0  0  0  0
    1.5293   -0.2353   -0.7178 C   0  0  0  0  0  0  0  0  0  0  0  0
    1.3964   -0.6326   -2.1621 C   0  0  0  0  0  0  0  0  0  0  0  0
    2.9548   -0.0674   -0.2412 C   0  0  0  0  0  0  0  0  0  0  0  0
    3.2234    0.3433    1.2006 C   0  0  0  0  0  0  0  0  0  0  0  0
    4.7088    0.4718    1.5003 C   0  0  0  0  0  0  0  0  0  0  0  0
   -1.0995   -0.4902   -1.2089 H   0  0  0  0  0  0  0  0  0  0  0  0
   -1.6167   -0.9909    1.7360 H   0  0  0  0  0  0  0  0  0  0  0  0
   -3.6119   -2.0681    1.0260 H   0  0  0  0  0  0  0  0  0  0  0  0
   -3.1412   -2.0896   -0.6707 H   0  0  0  0  0  0  0  0  0  0  0  0
   -3.8764    1.8481   -0.2531 H   0  0  0  0  0  0  0  0  0  0  0  0
   -1.8909    3.0818   -1.1452 H   0  0  0  0  0  0  0  0  0  0  0  0
   -0.2732    2.3803   -1.1559 H   0  0  0  0  0  0  0  0  0  0  0  0
   -1.5480    1.6795   -2.1649 H   0  0  0  0  0  0  0  0  0  0  0  0
   -0.4145    2.2457    1.3714 H   0  0  0  0  0  0  0  0  0  0  0  0
   -2.0767    2.8112    1.4079 H   0  0  0  0  0  0  0  0  0  0  0  0
   -1.6654    1.2724    2.1649 H   0  0  0  0  0  0  0  0  0  0  0  0
    0.7088    0.2396    1.1571 H   0  0  0  0  0  0  0  0  0  0  0  0
   -4.9189   -0.2810   -0.0665 H   0  0  0  0  0  0  0  0  0  0  0  0
   -1.4306   -3.4104    1.1294 H   0  0  0  0  0  0  0  0  0  0  0  0
   -0.7907   -2.9566   -0.4595 H   0  0  0  0  0  0  0  0  0  0  0  0
    0.1140   -2.5703    1.0167 H   0  0  0  0  0  0  0  0  0  0  0  0
    0.3738   -0.6224   -2.5410 H   0  0  0  0  0  0  0  0  0  0  0  0
    1.9645    0.0563   -2.7975 H   0  0  0  0  0  0  0  0  0  0  0  0
    1.7927   -1.6427   -2.3103 H   0  0  0  0  0  0  0  0  0  0  0  0
    2.7970   -0.4131    1.8680 H   0  0  0  0  0  0  0  0  0  0  0  0
    2.7447    1.3104    1.3873 H   0  0  0  0  0  0  0  0  0  0  0  0
    5.2272   -0.4785    1.3353 H   0  0  0  0  0  0  0  0  0  0  0  0
    5.1761    1.2255    0.8579 H   0  0  0  0  0  0  0  0  0  0  0  0
    4.8624    0.7684    2.5425 H   0  0  0  0  0  0  0  0  0  0  0  0
  1 14  2  0  0  0  0
  2  3  1  0  0  0  0
  2  4  1  0  0  0  0
  2  9  1  0  0  0  0
  2 17  1  0  0  0  0
  3  6  1  0  0  0  0
  3  7  1  0  0  0  0
  3  8  1  0  0  0  0
  4  5  1  0  0  0  0
  4 11  1  0  0  0  0
  4 18  1  0  0  0  0
  5 10  1  0  0  0  0
  5 19  1  0  0  0  0
  5 20  1  0  0  0  0
  6 10  2  0  0  0  0
  6 21  1  0  0  0  0
  7 22  1  0  0  0  0
  7 23  1  0  0  0  0
  7 24  1  0  0  0  0
  8 25  1  0  0  0  0
  8 26  1  0  0  0  0
  8 27  1  0  0  0  0
  9 12  2  0  0  0  0
  9 28  1  0  0  0  0
 10 29  1  0  0  0  0
 11 30  1  0  0  0  0
 11 31  1  0  0  0  0
 11 32  1  0  0  0  0
 12 13  1  0  0  0  0
 12 14  1  0  0  0  0
 13 33  1  0  0  0  0
 13 34  1  0  0  0  0
 13 35  1  0  0  0  0
 14 15  1  0  0  0  0
 15 16  1  0  0  0  0
 15 36  1  0  0  0  0
 15 37  1  0  0  0  0
 16 38  1  0  0  0  0
 16 39  1  0  0  0  0
 16 40  1  0  0  0  0
M  END
> <PUBCHEM_COMPOUND_CID>
6437469

> <PUBCHEM_CONFORMER_RMSD>
0.6

> <PUBCHEM_CONFORMER_DIVERSEORDER>
5
46
27
69
50
35
45
71
54
72
28
55
59
43
70
38
75
76
62
19
68
73
26
6
66
64
51
47
21
77
3
15
56
74
58
8
61
37
13
33
41
48
57
24
18
60
52
63
49
1
16
53
25
34
39
36
44
65
12
17
14
4
40
22
9
42
20
30
32
23
7
67
11
29
10
31
2

> <PUBCHEM_MMFF94_PARTIAL_CHARGES>
14
1 -0.57
10 -0.29
12 -0.12
13 0.14
14 0.49
15 0.06
2 0.14
21 0.15
28 0.15
29 0.15
3 0.14
5 0.14
6 -0.29
9 -0.29

> <PUBCHEM_EFFECTIVE_ROTOR_COUNT>
3.8

> <PUBCHEM_PHARMACOPHORE_FEATURES>
5
1 1 acceptor
1 13 hydrophobe
1 16 hydrophobe
3 3 7 8 hydrophobe
6 2 3 4 5 6 10 rings

> <PUBCHEM_HEAVY_ATOM_COUNT>
16

> <PUBCHEM_ATOM_DEF_STEREO_COUNT>
0

> <PUBCHEM_ATOM_UDEF_STEREO_COUNT>
2

> <PUBCHEM_BOND_DEF_STEREO_COUNT>
1

> <PUBCHEM_BOND_UDEF_STEREO_COUNT>
0

> <PUBCHEM_ISOTOPIC_ATOM_COUNT>
0

> <PUBCHEM_COMPONENT_COUNT>
1

> <PUBCHEM_CACTVS_TAUTO_COUNT>
5

> <PUBCHEM_CONFORMER_ID>
00623A5D00000005

> <PUBCHEM_MMFF94_ENERGY>
29.3219

> <PUBCHEM_FEATURE_SELFOVERLAP>
25.373

> <PUBCHEM_SHAPE_FINGERPRINT>
10366900 7 17989218040039221686
11132069 177 18412265034330467193
11615757 297 15626226810059727870
12119455 92 17417804071951070090
12236239 1 17167860872120855050
12592029 89 17023184886276479499
12633257 1 18411983572175725792
12670545 47 18130792312530350132
13024252 1 14201405993052476589
13083527 12 17121970796026352239
13214271 11 17775559858161302201
13296909 8 18040983030163307684
13581323 91 18113901554490076542
13583140 156 18195498499232582192
14614273 12 18188771622495324245
15219456 202 17846500322488739050
15279308 16 17917991655248497144
15375358 24 18202844344511874213
15669948 3 18115033016532808182
15775835 57 18041567935857618737
16945 1 18334587823873596237
17846911 113 18411416207111507017
18186145 218 18198350558663222564
19049666 15 17986968348959663070
200 152 15984823701190346239
20510252 161 18413389825951144561
20600515 1 18336546139470594065
20645476 183 16951142779669425123
21069387 34 15647053776213427002
23402539 116 18339067281168289647
23419403 2 17909800435630124757
23532345 42 18410857702111795813
23557571 272 18270980019170403703
23559900 14 18339931428883631086
2748010 2 17537726486695615741
43471831 8 18187643553366798891
474 4 14404032847778524730
5706482 22 18041834017977300875
77492 1 17167868577339702366
81228 2 18266764461640511043
90316 7 18040431066504549860

> <PUBCHEM_SHAPE_MULTIPOLES>
323.4
7.14
2.03
1.48
6.16
0.29
0.4
-0.41
-1.81
-1.89
-0.27
1.27
-0.17
0.71

> <PUBCHEM_SHAPE_SELFOVERLAP>
640.622

> <PUBCHEM_SHAPE_VOLUME>
192.7

> <PUBCHEM_COORDINATE_TYPE>
2
5
10

$$$$
