6437805
  -OEChem-11232109063D

 48 47  0     0  0  0  0  0  0999 V2000
   -1.9467   -0.9396   -0.3644 O   0  0  0  0  0  0  0  0  0  0  0  0
   -1.0316   -0.7142    1.7418 O   0  0  0  0  0  0  0  0  0  0  0  0
   -5.3847    0.6141   -0.7730 C   0  0  0  0  0  0  0  0  0  0  0  0
   -4.0873   -0.1410   -1.1048 C   0  0  0  0  0  0  0  0  0  0  0  0
    2.5392   -2.8229    0.4098 C   0  0  0  0  0  0  0  0  0  0  0  0
    1.3831   -1.9762    0.9593 C   0  0  0  0  0  0  0  0  0  0  0  0
   -3.1172   -0.2382    0.0665 C   0  0  0  0  0  0  0  0  0  0  0  0
    3.3035   -2.2197   -0.7715 C   0  0  0  0  0  0  0  0  0  0  0  0
    0.2132   -1.8140   -0.0096 C   0  0  0  0  0  0  0  0  0  0  0  0
   -6.1043   -0.0747    0.3889 C   0  0  0  0  0  0  0  0  0  0  0  0
   -5.1319    2.0820   -0.4265 C   0  0  0  0  0  0  0  0  0  0  0  0
    4.4936    1.5064   -0.7829 C   0  0  0  0  0  0  0  0  0  0  0  0
    3.5341    2.6441   -0.4213 C   0  0  0  0  0  0  0  0  0  0  0  0
    3.9757   -0.9211   -0.4323 C   0  0  0  0  0  0  0  0  0  0  0  0
   -0.9800   -1.1061    0.5830 C   0  0  0  0  0  0  0  0  0  0  0  0
    3.7918    0.2204   -1.1114 C   0  0  0  0  0  0  0  0  0  0  0  0
    2.7161    2.3593    0.8403 C   0  0  0  0  0  0  0  0  0  0  0  0
    1.8331    3.5415    1.2081 C   0  0  0  0  0  0  0  0  0  0  0  0
   -6.0320    0.5748   -1.6578 H   0  0  0  0  0  0  0  0  0  0  0  0
   -3.5839    0.3436   -1.9513 H   0  0  0  0  0  0  0  0  0  0  0  0
   -4.3276   -1.1538   -1.4538 H   0  0  0  0  0  0  0  0  0  0  0  0
    2.1512   -3.8049    0.1115 H   0  0  0  0  0  0  0  0  0  0  0  0
    3.2450   -3.0100    1.2298 H   0  0  0  0  0  0  0  0  0  0  0  0
    1.7459   -0.9910    1.2745 H   0  0  0  0  0  0  0  0  0  0  0  0
    1.0168   -2.4639    1.8722 H   0  0  0  0  0  0  0  0  0  0  0  0
   -3.5608   -0.7937    0.8988 H   0  0  0  0  0  0  0  0  0  0  0  0
   -2.8193    0.7580    0.4094 H   0  0  0  0  0  0  0  0  0  0  0  0
    2.6316   -2.1035   -1.6297 H   0  0  0  0  0  0  0  0  0  0  0  0
    4.0796   -2.9302   -1.0816 H   0  0  0  0  0  0  0  0  0  0  0  0
   -0.1218   -2.8018   -0.3463 H   0  0  0  0  0  0  0  0  0  0  0  0
    0.5395   -1.2375   -0.8822 H   0  0  0  0  0  0  0  0  0  0  0  0
   -6.2234   -1.1468    0.1999 H   0  0  0  0  0  0  0  0  0  0  0  0
   -5.5812    0.0549    1.3417 H   0  0  0  0  0  0  0  0  0  0  0  0
   -7.1068    0.3502    0.5133 H   0  0  0  0  0  0  0  0  0  0  0  0
   -4.5678    2.5773   -1.2235 H   0  0  0  0  0  0  0  0  0  0  0  0
   -6.0823    2.6144   -0.3111 H   0  0  0  0  0  0  0  0  0  0  0  0
   -4.5764    2.1977    0.5093 H   0  0  0  0  0  0  0  0  0  0  0  0
    5.0805    1.8066   -1.6595 H   0  0  0  0  0  0  0  0  0  0  0  0
    5.2096    1.3629    0.0357 H   0  0  0  0  0  0  0  0  0  0  0  0
    4.1216    3.5588   -0.2739 H   0  0  0  0  0  0  0  0  0  0  0  0
    2.8560    2.8366   -1.2624 H   0  0  0  0  0  0  0  0  0  0  0  0
    4.6680   -0.9355    0.4061 H   0  0  0  0  0  0  0  0  0  0  0  0
    3.1112    0.2353   -1.9590 H   0  0  0  0  0  0  0  0  0  0  0  0
    3.3878    2.1377    1.6777 H   0  0  0  0  0  0  0  0  0  0  0  0
    2.0784    1.4811    0.6919 H   0  0  0  0  0  0  0  0  0  0  0  0
    1.1282    3.7700    0.4023 H   0  0  0  0  0  0  0  0  0  0  0  0
    2.4345    4.4351    1.4031 H   0  0  0  0  0  0  0  0  0  0  0  0
    1.2560    3.3169    2.1106 H   0  0  0  0  0  0  0  0  0  0  0  0
  1  7  1  0  0  0  0
  1 15  1  0  0  0  0
  2 15  2  0  0  0  0
  3  4  1  0  0  0  0
  3 10  1  0  0  0  0
  3 11  1  0  0  0  0
  3 19  1  0  0  0  0
  4  7  1  0  0  0  0
  4 20  1  0  0  0  0
  4 21  1  0  0  0  0
  5  6  1  0  0  0  0
  5  8  1  0  0  0  0
  5 22  1  0  0  0  0
  5 23  1  0  0  0  0
  6  9  1  0  0  0  0
  6 24  1  0  0  0  0
  6 25  1  0  0  0  0
  7 26  1  0  0  0  0
  7 27  1  0  0  0  0
  8 14  1  0  0  0  0
  8 28  1  0  0  0  0
  8 29  1  0  0  0  0
  9 15  1  0  0  0  0
  9 30  1  0  0  0  0
  9 31  1  0  0  0  0
 10 32  1  0  0  0  0
 10 33  1  0  0  0  0
 10 34  1  0  0  0  0
 11 35  1  0  0  0  0
 11 36  1  0  0  0  0
 11 37  1  0  0  0  0
 12 13  1  0  0  0  0
 12 16  1  0  0  0  0
 12 38  1  0  0  0  0
 12 39  1  0  0  0  0
 13 17  1  0  0  0  0
 13 40  1  0  0  0  0
 13 41  1  0  0  0  0
 14 16  2  0  0  0  0
 14 42  1  0  0  0  0
 16 43  1  0  0  0  0
 17 18  1  0  0  0  0
 17 44  1  0  0  0  0
 17 45  1  0  0  0  0
 18 46  1  0  0  0  0
 18 47  1  0  0  0  0
 18 48  1  0  0  0  0
M  END
> <PUBCHEM_COMPOUND_CID>
6437805

> <PUBCHEM_CONFORMER_RMSD>
1

> <PUBCHEM_CONFORMER_DIVERSEORDER>
1
5
22
163
149
19
47
96
56
44
57
28
158
94
127
133
2
17
87
35
45
82
33
114
76
159
137
125
10
148
102
7
42
135
196
14
144
195
117
46
13
70
138
179
190
172
86
60
175
8
43
52
85
201
199
32
25
75
20
123
100
130
37
131
154
160
171
97
108
40
50
62
124
67
188
139
38
177
191
36
200
48
4
88
186
181
12
184
84
27
207
176
92
66
128
146
39
105
34
206
136
161
55
78
121
213
41
109
98
64
115
91
198
173
204
122
6
73
126
23
81
31
54
192
111
59
183
156
65
29
103
132
178
16
58
208
80
69
89
30
107
153
162
211
101
93
83
147
106
202
104
212
79
134
129
118
21
113
187
197
77
180
3
167
72
15
18
152
157
74
203
61
95
24
205
68
209
51
170
166
174
165
71
9
11
90
193
99
210
116
119
145
169
150
141
182
49
168
110
120
112
53
194
140
155
189
63
142
26
185
143
151
164

> <PUBCHEM_MMFF94_PARTIAL_CHARGES>
11
1 -0.43
12 0.14
14 -0.29
15 0.66
16 -0.29
2 -0.57
42 0.15
43 0.15
7 0.28
8 0.14
9 0.06

> <PUBCHEM_EFFECTIVE_ROTOR_COUNT>
12

> <PUBCHEM_PHARMACOPHORE_FEATURES>
5
1 18 hydrophobe
1 2 acceptor
3 3 10 11 hydrophobe
4 12 13 16 17 hydrophobe
5 5 6 8 9 14 hydrophobe

> <PUBCHEM_HEAVY_ATOM_COUNT>
18

> <PUBCHEM_ATOM_DEF_STEREO_COUNT>
0

> <PUBCHEM_ATOM_UDEF_STEREO_COUNT>
0

> <PUBCHEM_BOND_DEF_STEREO_COUNT>
1

> <PUBCHEM_BOND_UDEF_STEREO_COUNT>
0

> <PUBCHEM_ISOTOPIC_ATOM_COUNT>
0

> <PUBCHEM_COMPONENT_COUNT>
1

> <PUBCHEM_CACTVS_TAUTO_COUNT>
1

> <PUBCHEM_CONFORMER_ID>
00623BAD00000001

> <PUBCHEM_MMFF94_ENERGY>
7.2338

> <PUBCHEM_FEATURE_SELFOVERLAP>
25.375

> <PUBCHEM_SHAPE_FINGERPRINT>
11273773 38 17547290004596709401
11595378 159 14996273696147162127
11858739 19 10879989138852984447
12769317 202 18408880750530491734
13955234 65 17895753967894619875
14251764 30 10810437301903293224
14681490 219 18342742888416047476
14848178 96 18261392273275481877
14931854 50 18340503187883769468
15210252 30 18114188566281792060
15322687 12 18411419552917638360
17093844 170 18335980965252153940
1768 85 18267876162697067057
17844677 252 18337678495246110543
17959699 21 18409730647138344895
20621476 13 18338801233798826740
21315764 21 18334867159788425408
21344244 78 18047450259111859850
21388113 180 18192150614432003844
22224240 67 8934414304667964046
22289505 5 18411420579599204636
3014063 31 18411699846578317588
3117164 225 10810715473717765983
43658 37 18337390543084255614
4463277 69 11384114141645041539
5312510 48 18410294700967238397
5312625 73 18410294757054897339
543358 83 18339643343429836610
54672768 99 18191309492901324476
574716 61 17988915717270229029

> <PUBCHEM_SHAPE_MULTIPOLES>
358.69
13.02
3.78
1.23
18.54
2.07
-0.19
5.03
3.96
-5.18
-1.02
-0.23
0.17
0.66

> <PUBCHEM_SHAPE_SELFOVERLAP>
663.049

> <PUBCHEM_SHAPE_VOLUME>
225.7

> <PUBCHEM_COORDINATE_TYPE>
2
5
10

$$$$
