6437460
  -OEChem-11232108453D

 39 39  0     1  0  0  0  0  0999 V2000
   -4.0184   -1.3381   -0.9929 O   0  0  0  0  0  0  0  0  0  0  0  0
    2.2970    0.6207   -0.0424 C   0  0  0  0  0  0  0  0  0  0  0  0
    0.8701   -0.0017    0.0494 C   0  0  1  0  0  0  0  0  0  0  0  0
    1.0798   -1.4213    0.5939 C   0  0  0  0  0  0  0  0  0  0  0  0
    3.1320   -0.6329   -0.2381 C   0  0  0  0  0  0  0  0  0  0  0  0
   -0.1624    0.7808    0.8515 C   0  0  0  0  0  0  0  0  0  0  0  0
    2.4583   -1.7357    0.1183 C   0  0  0  0  0  0  0  0  0  0  0  0
    2.3784    1.5845   -1.2342 C   0  0  0  0  0  0  0  0  0  0  0  0
    2.7365    1.3487    1.2378 C   0  0  0  0  0  0  0  0  0  0  0  0
    4.5420   -0.5993   -0.7172 C   0  0  0  0  0  0  0  0  0  0  0  0
   -1.4816    0.0666    0.8848 C   0  0  0  0  0  0  0  0  0  0  0  0
   -2.5295    0.2317    0.0526 C   0  0  0  0  0  0  0  0  0  0  0  0
   -3.8325   -0.5332    0.1714 C   0  0  1  0  0  0  0  0  0  0  0  0
   -2.4361    1.2372   -1.0690 C   0  0  0  0  0  0  0  0  0  0  0  0
   -5.0336    0.3920    0.3341 C   0  0  0  0  0  0  0  0  0  0  0  0
    0.4823   -0.1114   -0.9769 H   0  0  0  0  0  0  0  0  0  0  0  0
    0.3502   -2.1207    0.1736 H   0  0  0  0  0  0  0  0  0  0  0  0
    1.0395   -1.4736    1.6872 H   0  0  0  0  0  0  0  0  0  0  0  0
   -0.2637    1.7999    0.4643 H   0  0  0  0  0  0  0  0  0  0  0  0
    0.1632    0.8982    1.8926 H   0  0  0  0  0  0  0  0  0  0  0  0
    2.8650   -2.7370    0.0990 H   0  0  0  0  0  0  0  0  0  0  0  0
    1.6646    2.4082   -1.1219 H   0  0  0  0  0  0  0  0  0  0  0  0
    3.3782    2.0241   -1.3252 H   0  0  0  0  0  0  0  0  0  0  0  0
    2.1555    1.0770   -2.1799 H   0  0  0  0  0  0  0  0  0  0  0  0
    3.7808    1.6752    1.1698 H   0  0  0  0  0  0  0  0  0  0  0  0
    2.1322    2.2452    1.4149 H   0  0  0  0  0  0  0  0  0  0  0  0
    2.6526    0.7062    2.1218 H   0  0  0  0  0  0  0  0  0  0  0  0
    4.9879   -1.5996   -0.7228 H   0  0  0  0  0  0  0  0  0  0  0  0
    5.1561    0.0335   -0.0697 H   0  0  0  0  0  0  0  0  0  0  0  0
    4.5937   -0.2083   -1.7378 H   0  0  0  0  0  0  0  0  0  0  0  0
   -1.5834   -0.6696    1.6812 H   0  0  0  0  0  0  0  0  0  0  0  0
   -3.7936   -1.2168    1.0270 H   0  0  0  0  0  0  0  0  0  0  0  0
   -2.8471    0.8224   -1.9952 H   0  0  0  0  0  0  0  0  0  0  0  0
   -3.0035    2.1390   -0.8176 H   0  0  0  0  0  0  0  0  0  0  0  0
   -1.4149    1.5396   -1.3131 H   0  0  0  0  0  0  0  0  0  0  0  0
   -5.9466   -0.2005    0.4613 H   0  0  0  0  0  0  0  0  0  0  0  0
   -4.9217    1.0440    1.2063 H   0  0  0  0  0  0  0  0  0  0  0  0
   -5.1965    1.0150   -0.5524 H   0  0  0  0  0  0  0  0  0  0  0  0
   -4.3520   -0.7743   -1.7109 H   0  0  0  0  0  0  0  0  0  0  0  0
  1 13  1  0  0  0  0
  1 39  1  0  0  0  0
  2  3  1  0  0  0  0
  2  5  1  0  0  0  0
  2  8  1  0  0  0  0
  2  9  1  0  0  0  0
  3  4  1  0  0  0  0
  3  6  1  0  0  0  0
  3 16  1  0  0  0  0
  4  7  1  0  0  0  0
  4 17  1  0  0  0  0
  4 18  1  0  0  0  0
  5  7  2  0  0  0  0
  5 10  1  0  0  0  0
  6 11  1  0  0  0  0
  6 19  1  0  0  0  0
  6 20  1  0  0  0  0
  7 21  1  0  0  0  0
  8 22  1  0  0  0  0
  8 23  1  0  0  0  0
  8 24  1  0  0  0  0
  9 25  1  0  0  0  0
  9 26  1  0  0  0  0
  9 27  1  0  0  0  0
 10 28  1  0  0  0  0
 10 29  1  0  0  0  0
 10 30  1  0  0  0  0
 11 12  2  0  0  0  0
 11 31  1  0  0  0  0
 12 13  1  0  0  0  0
 12 14  1  0  0  0  0
 13 15  1  0  0  0  0
 13 32  1  0  0  0  0
 14 33  1  0  0  0  0
 14 34  1  0  0  0  0
 14 35  1  0  0  0  0
 15 36  1  0  0  0  0
 15 37  1  0  0  0  0
 15 38  1  0  0  0  0
M  END
> <PUBCHEM_COMPOUND_CID>
6437460

> <PUBCHEM_CONFORMER_RMSD>
0.6

> <PUBCHEM_CONFORMER_DIVERSEORDER>
5
33
62
65
2
30
66
31
51
61
35
50
13
57
49
54
56
64
17
69
45
55
67
28
21
29
36
59
52
26
44
12
41
68
39
15
6
58
34
60
70
72
40
10
9
38
16
71
46
25
43
23
63
11
1
42
37
48
18
47
53
19
14
20
8
32
7
22
27
4
24
3

> <PUBCHEM_MMFF94_PARTIAL_CHARGES>
14
1 -0.68
10 0.14
11 -0.29
12 -0.28
13 0.42
14 0.14
2 0.14
21 0.15
31 0.15
39 0.4
4 0.14
5 -0.28
6 0.14
7 -0.29

> <PUBCHEM_EFFECTIVE_ROTOR_COUNT>
3.6

> <PUBCHEM_PHARMACOPHORE_FEATURES>
5
1 1 acceptor
1 1 donor
1 14 hydrophobe
3 2 8 9 hydrophobe
5 2 3 4 5 7 rings

> <PUBCHEM_HEAVY_ATOM_COUNT>
15

> <PUBCHEM_ATOM_DEF_STEREO_COUNT>
0

> <PUBCHEM_ATOM_UDEF_STEREO_COUNT>
2

> <PUBCHEM_BOND_DEF_STEREO_COUNT>
1

> <PUBCHEM_BOND_UDEF_STEREO_COUNT>
0

> <PUBCHEM_ISOTOPIC_ATOM_COUNT>
0

> <PUBCHEM_COMPONENT_COUNT>
1

> <PUBCHEM_CACTVS_TAUTO_COUNT>
1

> <PUBCHEM_CONFORMER_ID>
00623A5400000005

> <PUBCHEM_MMFF94_ENERGY>
31.2729

> <PUBCHEM_FEATURE_SELFOVERLAP>
25.371

> <PUBCHEM_SHAPE_FINGERPRINT>
10498660 4 16153981344852458941
11806522 49 18343866593868395266
12251169 10 10807929362638932145
12932764 1 18410849937074538849
13296908 3 17846492643182308977
13705890 14 18413106160730925680
14115302 16 18342464763144036342
14250199 8 17894920645660045853
14252887 29 9007063474051247096
14350574 20 18342464741906700102
14576447 43 18413105065419800446
15477762 27 18336550430411896198
18186145 218 18259698995651789899
18915474 69 18272086145116406855
19422 9 17775006808133579723
19433438 38 18041559139738190374
200 152 18341897381026997835
20281475 54 18412543249817396803
20645477 70 18060419114360882567
20671657 53 18200599094718383800
21713013 43 18412539916637932447
21730867 7 18341607135632168680
221490 88 18268716176110268738
22169311 14 12031778163145782463
22485316 2 18131627907213384977
22646028 28 17775567520113816031
231179 274 15285361747361245884
23402539 116 17603581911355006045
23402655 69 18262236616891197013
23526113 38 17604720949841289610
23557571 272 18187649059699079437
23559900 14 18113620088409450794
2748010 2 18120674666983007066
2871803 45 18336255817183163063
3060560 45 18113902663024486990
3286 77 18202283602219310736
5281201 14 18041000600847934253
53428517 58 18113058250736345419
58051976 100 18412825781276921711
581208 293 18335698381476853544
633830 44 17748827423560214185

> <PUBCHEM_SHAPE_MULTIPOLES>
302.82
8.96
1.59
1.12
7.01
0.08
0
1.1
-1.52
-0.83
-0.18
-0.17
-0.3
-0.01

> <PUBCHEM_SHAPE_SELFOVERLAP>
601.259

> <PUBCHEM_SHAPE_VOLUME>
184.3

> <PUBCHEM_COORDINATE_TYPE>
2
5
10

$$$$
