6437178
  -OEChem-11232109433D

 53 54  0     0  0  0  0  0  0999 V2000
   -2.5579    1.7984   -0.8180 O   0  0  0  0  0  0  0  0  0  0  0  0
   -3.0048    0.3951   -2.5872 O   0  0  0  0  0  0  0  0  0  0  0  0
   -1.6510   -0.4158    0.8613 N   0  0  0  0  0  0  0  0  0  0  0  0
    1.9236    2.5096    1.1579 C   0  0  0  0  0  0  0  0  0  0  0  0
    1.4112    1.3303    0.3269 C   0  0  0  0  0  0  0  0  0  0  0  0
    2.1157    3.7569    0.2932 C   0  0  0  0  0  0  0  0  0  0  0  0
    1.2294    0.0449    1.1466 C   0  0  0  0  0  0  0  0  0  0  0  0
    2.6559    4.9250    1.1180 C   0  0  0  0  0  0  0  0  0  0  0  0
    0.6528   -1.1116    0.3684 C   0  0  0  0  0  0  0  0  0  0  0  0
    2.8182    6.1769    0.2708 C   0  0  0  0  0  0  0  0  0  0  0  0
    1.3350   -2.0790   -0.2706 C   0  0  0  0  0  0  0  0  0  0  0  0
   -0.8311   -1.2481    0.3033 C   0  0  0  0  0  0  0  0  0  0  0  0
    2.7970   -2.1737   -0.3359 C   0  0  0  0  0  0  0  0  0  0  0  0
    3.4918   -1.5362   -1.3638 C   0  0  0  0  0  0  0  0  0  0  0  0
    3.4929   -2.9013    0.6296 C   0  0  0  0  0  0  0  0  0  0  0  0
   -3.0183   -0.6925    0.6959 C   0  0  0  0  0  0  0  0  0  0  0  0
   -3.7280   -0.1755   -0.3881 C   0  0  0  0  0  0  0  0  0  0  0  0
    4.8824   -1.6264   -1.4263 C   0  0  0  0  0  0  0  0  0  0  0  0
    4.8834   -2.9913    0.5671 C   0  0  0  0  0  0  0  0  0  0  0  0
   -3.6660   -1.4965    1.6339 C   0  0  0  0  0  0  0  0  0  0  0  0
    5.5781   -2.3538   -0.4609 C   0  0  0  0  0  0  0  0  0  0  0  0
   -5.0852   -0.4627   -0.5338 C   0  0  0  0  0  0  0  0  0  0  0  0
   -5.0231   -1.7837    1.4881 C   0  0  0  0  0  0  0  0  0  0  0  0
   -5.7327   -1.2667    0.4043 C   0  0  0  0  0  0  0  0  0  0  0  0
   -3.0775    0.6670   -1.3830 C   0  0  0  0  0  0  0  0  0  0  0  0
   -1.8917    2.7107   -1.6976 C   0  0  0  0  0  0  0  0  0  0  0  0
    1.2136    2.7246    1.9655 H   0  0  0  0  0  0  0  0  0  0  0  0
    2.8763    2.2367    1.6277 H   0  0  0  0  0  0  0  0  0  0  0  0
    2.1074    1.1393   -0.4988 H   0  0  0  0  0  0  0  0  0  0  0  0
    0.4530    1.6063   -0.1291 H   0  0  0  0  0  0  0  0  0  0  0  0
    2.8102    3.5349   -0.5262 H   0  0  0  0  0  0  0  0  0  0  0  0
    1.1582    4.0380   -0.1619 H   0  0  0  0  0  0  0  0  0  0  0  0
    2.2008   -0.2396    1.5702 H   0  0  0  0  0  0  0  0  0  0  0  0
    0.5966    0.2527    2.0187 H   0  0  0  0  0  0  0  0  0  0  0  0
    3.6250    4.6563    1.5542 H   0  0  0  0  0  0  0  0  0  0  0  0
    1.9745    5.1407    1.9492 H   0  0  0  0  0  0  0  0  0  0  0  0
    1.8590    6.4911   -0.1528 H   0  0  0  0  0  0  0  0  0  0  0  0
    3.2063    6.9992    0.8800 H   0  0  0  0  0  0  0  0  0  0  0  0
    3.5181    6.0047   -0.5531 H   0  0  0  0  0  0  0  0  0  0  0  0
    0.8201   -2.8801   -0.7962 H   0  0  0  0  0  0  0  0  0  0  0  0
   -1.2109   -2.1188   -0.2651 H   0  0  0  0  0  0  0  0  0  0  0  0
    2.9636   -0.9658   -2.1241 H   0  0  0  0  0  0  0  0  0  0  0  0
    2.9653   -3.4037    1.4369 H   0  0  0  0  0  0  0  0  0  0  0  0
    5.4235   -1.1301   -2.2266 H   0  0  0  0  0  0  0  0  0  0  0  0
    5.4254   -3.5576    1.3188 H   0  0  0  0  0  0  0  0  0  0  0  0
   -3.1227   -1.9037    2.4828 H   0  0  0  0  0  0  0  0  0  0  0  0
    6.6609   -2.4239   -0.5095 H   0  0  0  0  0  0  0  0  0  0  0  0
   -5.6505   -0.0652   -1.3730 H   0  0  0  0  0  0  0  0  0  0  0  0
   -5.5274   -2.4096    2.2186 H   0  0  0  0  0  0  0  0  0  0  0  0
   -6.7895   -1.4900    0.2911 H   0  0  0  0  0  0  0  0  0  0  0  0
   -1.0646    2.2097   -2.2094 H   0  0  0  0  0  0  0  0  0  0  0  0
   -2.6028    3.1195   -2.4213 H   0  0  0  0  0  0  0  0  0  0  0  0
   -1.4885    3.5298   -1.0964 H   0  0  0  0  0  0  0  0  0  0  0  0
  1 25  1  0  0  0  0
  1 26  1  0  0  0  0
  2 25  2  0  0  0  0
  3 12  2  0  0  0  0
  3 16  1  0  0  0  0
  4  5  1  0  0  0  0
  4  6  1  0  0  0  0
  4 27  1  0  0  0  0
  4 28  1  0  0  0  0
  5  7  1  0  0  0  0
  5 29  1  0  0  0  0
  5 30  1  0  0  0  0
  6  8  1  0  0  0  0
  6 31  1  0  0  0  0
  6 32  1  0  0  0  0
  7  9  1  0  0  0  0
  7 33  1  0  0  0  0
  7 34  1  0  0  0  0
  8 10  1  0  0  0  0
  8 35  1  0  0  0  0
  8 36  1  0  0  0  0
  9 11  2  0  0  0  0
  9 12  1  0  0  0  0
 10 37  1  0  0  0  0
 10 38  1  0  0  0  0
 10 39  1  0  0  0  0
 11 13  1  0  0  0  0
 11 40  1  0  0  0  0
 12 41  1  0  0  0  0
 13 14  2  0  0  0  0
 13 15  1  0  0  0  0
 14 18  1  0  0  0  0
 14 42  1  0  0  0  0
 15 19  2  0  0  0  0
 15 43  1  0  0  0  0
 16 17  1  0  0  0  0
 16 20  2  0  0  0  0
 17 22  2  0  0  0  0
 17 25  1  0  0  0  0
 18 21  2  0  0  0  0
 18 44  1  0  0  0  0
 19 21  1  0  0  0  0
 19 45  1  0  0  0  0
 20 23  1  0  0  0  0
 20 46  1  0  0  0  0
 21 47  1  0  0  0  0
 22 24  1  0  0  0  0
 22 48  1  0  0  0  0
 23 24  2  0  0  0  0
 23 49  1  0  0  0  0
 24 50  1  0  0  0  0
 26 51  1  0  0  0  0
 26 52  1  0  0  0  0
 26 53  1  0  0  0  0
M  END
> <PUBCHEM_COMPOUND_CID>
6437178

> <PUBCHEM_CONFORMER_RMSD>
1

> <PUBCHEM_CONFORMER_DIVERSEORDER>
1
47
78
109
98
59
63
93
96
16
51
110
80
46
53
21
57
76
26
27
70
82
4
112
8
105
111
35
74
113
107
43
68
86
61
97
15
90
66
116
33
115
31
50
83
49
12
40
88
120
7
3
29
17
92
36
64
106
55
75
13
5
56
119
22
85
91
102
118
99
100
67
72
41
30
58
25
28
44
101
24
38
23
71
18
117
84
62
108
81
60
52
19
95
32
89
42
94
87
77
73
45
54
2
39
11
20
37
14
103
48
114
104
65
34
10
69
6
79
9

> <PUBCHEM_MMFF94_PARTIAL_CHARGES>
32
1 -0.43
11 -0.18
12 0.38
13 0.03
14 -0.15
15 -0.15
16 0.18
17 0.09
18 -0.15
19 -0.15
2 -0.57
20 -0.15
21 -0.15
22 -0.15
23 -0.15
24 -0.15
25 0.63
26 0.28
3 -0.63
40 0.15
41 0.06
42 0.15
43 0.15
44 0.15
45 0.15
46 0.15
47 0.15
48 0.15
49 0.15
50 0.15
7 0.14
9 -0.12

> <PUBCHEM_EFFECTIVE_ROTOR_COUNT>
10

> <PUBCHEM_PHARMACOPHORE_FEATURES>
7
1 10 hydrophobe
1 2 acceptor
1 3 acceptor
3 4 6 8 hydrophobe
3 5 7 9 hydrophobe
6 13 14 15 18 19 21 rings
6 16 17 20 22 23 24 rings

> <PUBCHEM_HEAVY_ATOM_COUNT>
26

> <PUBCHEM_ATOM_DEF_STEREO_COUNT>
0

> <PUBCHEM_ATOM_UDEF_STEREO_COUNT>
0

> <PUBCHEM_BOND_DEF_STEREO_COUNT>
1

> <PUBCHEM_BOND_UDEF_STEREO_COUNT>
0

> <PUBCHEM_ISOTOPIC_ATOM_COUNT>
0

> <PUBCHEM_COMPONENT_COUNT>
1

> <PUBCHEM_CACTVS_TAUTO_COUNT>
1

> <PUBCHEM_CONFORMER_ID>
0062393A00000001

> <PUBCHEM_MMFF94_ENERGY>
60.3813

> <PUBCHEM_FEATURE_SELFOVERLAP>
35.534

> <PUBCHEM_SHAPE_FINGERPRINT>
11488393 25 18337109068271348600
12166972 35 18041573438354641478
12788726 201 17546433489148094000
12988421 55 17340376596146343472
13540713 4 18187076304778257253
13757389 114 16678953440975689212
14251757 5 17976537208906031772
14363568 33 18410580625556272584
15081414 286 18342458162618098720
1813 80 17775015531149237766
18785283 64 18340203111107852040
21049683 271 18262536882460435116
21304303 282 17112958679339577032
21365058 113 18271542913410218838
22182313 1 18041829718820682205
23559900 14 17822012025680738111
24771750 20 18051145984207029572
249999 5 18197221557964027000
329604 57 18260555476502881054
5171179 24 18409164407498833893
6669772 16 18125445465232276092
6823239 73 17967529082201702597
7495541 125 18408609153657510002

> <PUBCHEM_SHAPE_MULTIPOLES>
518.35
12.01
6.26
1.64
5.6
13.67
0.6
-9.4
0.47
-11.96
-1.48
1.06
0.22
3.12

> <PUBCHEM_SHAPE_SELFOVERLAP>
1071.231

> <PUBCHEM_SHAPE_VOLUME>
297

> <PUBCHEM_COORDINATE_TYPE>
2
5
10

$$$$
