6437979
  -OEChem-11232108463D

 57 56  0     1  0  0  0  0  0999 V2000
    4.1423    0.4164    1.7624 O   0  0  0  0  0  0  0  0  0  0  0  0
    4.4693    0.0877    0.4041 C   0  0  1  0  0  0  0  0  0  0  0  0
    3.3517   -0.8250   -0.1512 C   0  0  0  0  0  0  0  0  0  0  0  0
    4.6651    1.4131   -0.3604 C   0  0  0  0  0  0  0  0  0  0  0  0
    1.9662   -0.1695   -0.2576 C   0  0  0  0  0  0  0  0  0  0  0  0
    5.7796   -0.7078    0.4740 C   0  0  0  0  0  0  0  0  0  0  0  0
    0.9502   -1.1451   -0.7871 C   0  0  0  0  0  0  0  0  0  0  0  0
    5.1322    1.2733   -1.8004 C   0  0  0  0  0  0  0  0  0  0  0  0
    0.1257   -1.9629   -0.1041 C   0  0  0  0  0  0  0  0  0  0  0  0
   -0.8331   -2.9535   -0.7270 C   0  0  0  0  0  0  0  0  0  0  0  0
   -2.2894   -2.7836   -0.2755 C   0  0  0  0  0  0  0  0  0  0  0  0
    0.1574   -1.9677    1.4042 C   0  0  0  0  0  0  0  0  0  0  0  0
   -2.8948   -1.4882   -0.7388 C   0  0  0  0  0  0  0  0  0  0  0  0
   -3.9291   -0.8011   -0.2146 C   0  0  0  0  0  0  0  0  0  0  0  0
   -4.4212    0.5405   -0.7203 C   0  0  0  0  0  0  0  0  0  0  0  0
   -4.2916    1.7175    0.2583 C   0  0  0  0  0  0  0  0  0  0  0  0
   -4.6280   -1.3433    1.0076 C   0  0  0  0  0  0  0  0  0  0  0  0
   -2.9019    1.9136    0.7971 C   0  0  0  0  0  0  0  0  0  0  0  0
   -1.9055    2.6338    0.2477 C   0  0  0  0  0  0  0  0  0  0  0  0
   -2.1128    3.3590   -1.0547 C   0  0  0  0  0  0  0  0  0  0  0  0
   -0.5323    2.7929    0.8361 C   0  0  0  0  0  0  0  0  0  0  0  0
    3.6454   -1.2014   -1.1399 H   0  0  0  0  0  0  0  0  0  0  0  0
    3.2624   -1.7061    0.4995 H   0  0  0  0  0  0  0  0  0  0  0  0
    5.3949    2.0296    0.1822 H   0  0  0  0  0  0  0  0  0  0  0  0
    3.7394    2.0003   -0.3313 H   0  0  0  0  0  0  0  0  0  0  0  0
    1.9988    0.6792   -0.9501 H   0  0  0  0  0  0  0  0  0  0  0  0
    1.6565    0.2416    0.7085 H   0  0  0  0  0  0  0  0  0  0  0  0
    5.6801   -1.5707    1.1433 H   0  0  0  0  0  0  0  0  0  0  0  0
    6.0904   -1.0788   -0.5074 H   0  0  0  0  0  0  0  0  0  0  0  0
    6.5875   -0.0925    0.8864 H   0  0  0  0  0  0  0  0  0  0  0  0
    0.9115   -1.1986   -1.8748 H   0  0  0  0  0  0  0  0  0  0  0  0
    4.4279    0.6838   -2.3943 H   0  0  0  0  0  0  0  0  0  0  0  0
    6.1188    0.8055   -1.8624 H   0  0  0  0  0  0  0  0  0  0  0  0
    5.2095    2.2626   -2.2635 H   0  0  0  0  0  0  0  0  0  0  0  0
   -0.5006   -3.9655   -0.4620 H   0  0  0  0  0  0  0  0  0  0  0  0
   -0.7791   -2.8953   -1.8220 H   0  0  0  0  0  0  0  0  0  0  0  0
    4.0025   -0.4125    2.2513 H   0  0  0  0  0  0  0  0  0  0  0  0
   -2.8719   -3.6023   -0.7159 H   0  0  0  0  0  0  0  0  0  0  0  0
   -2.3563   -2.8903    0.8120 H   0  0  0  0  0  0  0  0  0  0  0  0
    1.0667   -1.5333    1.8272 H   0  0  0  0  0  0  0  0  0  0  0  0
    0.1114   -2.9962    1.7793 H   0  0  0  0  0  0  0  0  0  0  0  0
   -0.6989   -1.4158    1.8052 H   0  0  0  0  0  0  0  0  0  0  0  0
   -2.4328   -1.0586   -1.6279 H   0  0  0  0  0  0  0  0  0  0  0  0
   -5.4761    0.4357   -1.0047 H   0  0  0  0  0  0  0  0  0  0  0  0
   -3.8907    0.7955   -1.6471 H   0  0  0  0  0  0  0  0  0  0  0  0
   -4.9606    1.5540    1.1134 H   0  0  0  0  0  0  0  0  0  0  0  0
   -4.6656    2.6327   -0.2142 H   0  0  0  0  0  0  0  0  0  0  0  0
   -4.4823   -2.4169    1.1546 H   0  0  0  0  0  0  0  0  0  0  0  0
   -5.7096   -1.1937    0.9147 H   0  0  0  0  0  0  0  0  0  0  0  0
   -4.2868   -0.8218    1.9072 H   0  0  0  0  0  0  0  0  0  0  0  0
   -2.6954    1.3998    1.7348 H   0  0  0  0  0  0  0  0  0  0  0  0
   -2.0394    4.4400   -0.8945 H   0  0  0  0  0  0  0  0  0  0  0  0
   -1.3341    3.0678   -1.7686 H   0  0  0  0  0  0  0  0  0  0  0  0
   -3.0699    3.1616   -1.5412 H   0  0  0  0  0  0  0  0  0  0  0  0
    0.2278    2.4370    0.1339 H   0  0  0  0  0  0  0  0  0  0  0  0
   -0.3342    3.8455    1.0618 H   0  0  0  0  0  0  0  0  0  0  0  0
   -0.4224    2.2230    1.7646 H   0  0  0  0  0  0  0  0  0  0  0  0
  1  2  1  0  0  0  0
  1 37  1  0  0  0  0
  2  3  1  0  0  0  0
  2  4  1  0  0  0  0
  2  6  1  0  0  0  0
  3  5  1  0  0  0  0
  3 22  1  0  0  0  0
  3 23  1  0  0  0  0
  4  8  1  0  0  0  0
  4 24  1  0  0  0  0
  4 25  1  0  0  0  0
  5  7  1  0  0  0  0
  5 26  1  0  0  0  0
  5 27  1  0  0  0  0
  6 28  1  0  0  0  0
  6 29  1  0  0  0  0
  6 30  1  0  0  0  0
  7  9  2  0  0  0  0
  7 31  1  0  0  0  0
  8 32  1  0  0  0  0
  8 33  1  0  0  0  0
  8 34  1  0  0  0  0
  9 10  1  0  0  0  0
  9 12  1  0  0  0  0
 10 11  1  0  0  0  0
 10 35  1  0  0  0  0
 10 36  1  0  0  0  0
 11 13  1  0  0  0  0
 11 38  1  0  0  0  0
 11 39  1  0  0  0  0
 12 40  1  0  0  0  0
 12 41  1  0  0  0  0
 12 42  1  0  0  0  0
 13 14  2  0  0  0  0
 13 43  1  0  0  0  0
 14 15  1  0  0  0  0
 14 17  1  0  0  0  0
 15 16  1  0  0  0  0
 15 44  1  0  0  0  0
 15 45  1  0  0  0  0
 16 18  1  0  0  0  0
 16 46  1  0  0  0  0
 16 47  1  0  0  0  0
 17 48  1  0  0  0  0
 17 49  1  0  0  0  0
 17 50  1  0  0  0  0
 18 19  2  0  0  0  0
 18 51  1  0  0  0  0
 19 20  1  0  0  0  0
 19 21  1  0  0  0  0
 20 52  1  0  0  0  0
 20 53  1  0  0  0  0
 20 54  1  0  0  0  0
 21 55  1  0  0  0  0
 21 56  1  0  0  0  0
 21 57  1  0  0  0  0
M  END
> <PUBCHEM_COMPOUND_CID>
6437979

> <PUBCHEM_CONFORMER_RMSD>
1.4

> <PUBCHEM_CONFORMER_DIVERSEORDER>
1
17
5
91
73
2
103
15
119
92
31
114
130
18
100
136
7
87
16
35
129
118
72
30
122
112
47
128
26
46
117
120
82
53
64
8
43
21
38
12
25
68
125
69
101
76
86
131
66
74
32
102
57
88
104
84
105
22
81
6
110
49
133
71
95
33
139
60
98
138
59
24
50
83
23
11
63
44
115
51
10
106
89
4
45
123
109
27
42
58
126
37
28
137
29
108
70
80
135
20
36
55
113
90
127
62
40
48
67
9
61
134
94
41
116
99
97
78
111
124
132
52
39
19
34
13
75
54
65
85
107
121
3
56
93
79
14
96
77

> <PUBCHEM_MMFF94_PARTIAL_CHARGES>
21
1 -0.68
10 0.14
11 0.14
12 0.14
13 -0.29
14 -0.28
15 0.14
16 0.14
17 0.14
18 -0.29
19 -0.28
2 0.28
20 0.14
21 0.14
31 0.15
37 0.4
43 0.15
5 0.14
51 0.15
7 -0.29
9 -0.28

> <PUBCHEM_EFFECTIVE_ROTOR_COUNT>
10

> <PUBCHEM_PHARMACOPHORE_FEATURES>
8
1 1 acceptor
1 1 donor
1 12 hydrophobe
1 17 hydrophobe
1 8 hydrophobe
3 19 20 21 hydrophobe
4 14 15 16 18 hydrophobe
4 9 10 11 13 hydrophobe

> <PUBCHEM_HEAVY_ATOM_COUNT>
21

> <PUBCHEM_ATOM_DEF_STEREO_COUNT>
0

> <PUBCHEM_ATOM_UDEF_STEREO_COUNT>
1

> <PUBCHEM_BOND_DEF_STEREO_COUNT>
2

> <PUBCHEM_BOND_UDEF_STEREO_COUNT>
0

> <PUBCHEM_ISOTOPIC_ATOM_COUNT>
0

> <PUBCHEM_COMPONENT_COUNT>
1

> <PUBCHEM_CACTVS_TAUTO_COUNT>
1

> <PUBCHEM_CONFORMER_ID>
00623C5B00000001

> <PUBCHEM_MMFF94_ENERGY>
28.0725

> <PUBCHEM_FEATURE_SELFOVERLAP>
40.639

> <PUBCHEM_SHAPE_FINGERPRINT>
10498660 4 18269272366459983607
10670039 82 18410304605477990420
10730089 173 18412269458436965148
10871710 139 18341328921263480149
11595378 159 18261095371034551242
12596602 18 17386007312040172946
12788726 201 18336270123734901008
12838862 33 18268690763537955313
13402501 40 18201995530030298425
13773456 30 17469022385526583845
13994607 96 18041861599946123899
14117953 113 18191866725836557061
14251751 93 18338230458172061304
14251757 17 17703793566027190010
14251757 5 18338805640376815150
14251764 38 18337677395438979664
14251764 75 17983306919648064705
14840074 17 18187939356454609573
15021287 119 17676767583665873156
15256400 18 18340204077539173782
15575132 122 18260549983392716541
17492 54 18338498765517313085
17818456 19 18411130304356336698
20101258 96 17761221307259816259
20765182 5 18335988682896746820
21623110 236 18341337755542385113
23402539 116 18272642480767568231
23559900 14 17987519204612882806
3052486 1 18409718578311944104
469060 322 18263947543305408187
7064713 232 18339645533747710933
9981440 41 18336547123477541563

> <PUBCHEM_SHAPE_MULTIPOLES>
426.3
11.99
3.9
1.29
12.15
1.18
0.06
2.54
-0.07
-3.79
-0.35
0.74
0.18
-0.65

> <PUBCHEM_SHAPE_SELFOVERLAP>
804.534

> <PUBCHEM_SHAPE_VOLUME>
265.5

> <PUBCHEM_COORDINATE_TYPE>
2
5
10

$$$$
