6437291
  -OEChem-11232108483D

 38 39  0     1  0  0  0  0  0999 V2000
    0.8679   -0.1080   -0.1679 O   0  0  0  0  0  0  0  0  0  0  0  0
    2.5373   -1.1653    1.0301 O   0  0  0  0  0  0  0  0  0  0  0  0
   -1.4546   -0.7950   -0.3371 C   0  0  1  0  0  0  0  0  0  0  0  0
   -2.1833    0.3931    0.2709 C   0  0  0  0  0  0  0  0  0  0  0  0
   -0.0855   -1.0486    0.2881 C   0  0  1  0  0  0  0  0  0  0  0  0
   -2.1693   -2.1227   -0.1030 C   0  0  0  0  0  0  0  0  0  0  0  0
   -1.4430    1.7136    0.0823 C   0  0  0  0  0  0  0  0  0  0  0  0
   -3.5280    0.6769   -0.3908 C   0  0  0  0  0  0  0  0  0  0  0  0
    0.2535   -2.4600   -0.1775 C   0  0  0  0  0  0  0  0  0  0  0  0
   -1.0871   -3.1856   -0.2938 C   0  0  0  0  0  0  0  0  0  0  0  0
   -2.5101    2.7758    0.3278 C   0  0  0  0  0  0  0  0  0  0  0  0
   -3.8533    2.1049    0.0347 C   0  0  0  0  0  0  0  0  0  0  0  0
    2.1478   -0.2831    0.2815 C   0  0  0  0  0  0  0  0  0  0  0  0
    2.9912    0.7857   -0.2955 C   0  0  0  0  0  0  0  0  0  0  0  0
    4.2977    0.8368   -0.0053 C   0  0  0  0  0  0  0  0  0  0  0  0
    5.2188    1.8816   -0.5445 C   0  0  0  0  0  0  0  0  0  0  0  0
   -1.3324   -0.6296   -1.4175 H   0  0  0  0  0  0  0  0  0  0  0  0
   -2.3423    0.2274    1.3458 H   0  0  0  0  0  0  0  0  0  0  0  0
   -0.1528   -1.0075    1.3839 H   0  0  0  0  0  0  0  0  0  0  0  0
   -3.0075   -2.2719   -0.7909 H   0  0  0  0  0  0  0  0  0  0  0  0
   -2.5630   -2.1819    0.9193 H   0  0  0  0  0  0  0  0  0  0  0  0
   -1.0589    1.8090   -0.9408 H   0  0  0  0  0  0  0  0  0  0  0  0
   -0.6048    1.8338    0.7751 H   0  0  0  0  0  0  0  0  0  0  0  0
   -4.3072   -0.0257   -0.0795 H   0  0  0  0  0  0  0  0  0  0  0  0
   -3.4461    0.6269   -1.4836 H   0  0  0  0  0  0  0  0  0  0  0  0
    0.9123   -2.9831    0.5229 H   0  0  0  0  0  0  0  0  0  0  0  0
    0.7633   -2.4486   -1.1488 H   0  0  0  0  0  0  0  0  0  0  0  0
   -1.1838   -3.9763    0.4577 H   0  0  0  0  0  0  0  0  0  0  0  0
   -1.1745   -3.6573   -1.2789 H   0  0  0  0  0  0  0  0  0  0  0  0
   -2.3480    3.6551   -0.3040 H   0  0  0  0  0  0  0  0  0  0  0  0
   -2.4834    3.1119    1.3708 H   0  0  0  0  0  0  0  0  0  0  0  0
   -4.4706    2.1014    0.9405 H   0  0  0  0  0  0  0  0  0  0  0  0
   -4.4134    2.6351   -0.7421 H   0  0  0  0  0  0  0  0  0  0  0  0
    2.5268    1.5156   -0.9498 H   0  0  0  0  0  0  0  0  0  0  0  0
    4.7475    0.0977    0.6525 H   0  0  0  0  0  0  0  0  0  0  0  0
    5.6701    2.4417    0.2802 H   0  0  0  0  0  0  0  0  0  0  0  0
    4.7033    2.5926   -1.1980 H   0  0  0  0  0  0  0  0  0  0  0  0
    6.0212    1.4096   -1.1197 H   0  0  0  0  0  0  0  0  0  0  0  0
  1  5  1  0  0  0  0
  1 13  1  0  0  0  0
  2 13  2  0  0  0  0
  3  4  1  0  0  0  0
  3  5  1  0  0  0  0
  3  6  1  0  0  0  0
  3 17  1  0  0  0  0
  4  7  1  0  0  0  0
  4  8  1  0  0  0  0
  4 18  1  0  0  0  0
  5  9  1  0  0  0  0
  5 19  1  0  0  0  0
  6 10  1  0  0  0  0
  6 20  1  0  0  0  0
  6 21  1  0  0  0  0
  7 11  1  0  0  0  0
  7 22  1  0  0  0  0
  7 23  1  0  0  0  0
  8 12  1  0  0  0  0
  8 24  1  0  0  0  0
  8 25  1  0  0  0  0
  9 10  1  0  0  0  0
  9 26  1  0  0  0  0
  9 27  1  0  0  0  0
 10 28  1  0  0  0  0
 10 29  1  0  0  0  0
 11 12  1  0  0  0  0
 11 30  1  0  0  0  0
 11 31  1  0  0  0  0
 12 32  1  0  0  0  0
 12 33  1  0  0  0  0
 13 14  1  0  0  0  0
 14 15  2  0  0  0  0
 14 34  1  0  0  0  0
 15 16  1  0  0  0  0
 15 35  1  0  0  0  0
 16 36  1  0  0  0  0
 16 37  1  0  0  0  0
 16 38  1  0  0  0  0
M  END
> <PUBCHEM_COMPOUND_CID>
6437291

> <PUBCHEM_CONFORMER_RMSD>
0.8

> <PUBCHEM_CONFORMER_DIVERSEORDER>
1
44
33
24
42
47
5
30
45
4
22
48
21
40
12
32
11
25
37
14
27
6
35
3
18
43
2
26
39
9
29
36
7
38
13
41
34
46
19
16
23
17
15
10
20
31
8
28

> <PUBCHEM_MMFF94_PARTIAL_CHARGES>
9
1 -0.43
13 0.71
14 -0.14
15 -0.29
16 0.14
2 -0.57
34 0.15
35 0.15
5 0.28

> <PUBCHEM_EFFECTIVE_ROTOR_COUNT>
6

> <PUBCHEM_PHARMACOPHORE_FEATURES>
4
1 16 hydrophobe
1 2 acceptor
5 3 5 6 9 10 rings
5 4 7 8 11 12 rings

> <PUBCHEM_HEAVY_ATOM_COUNT>
16

> <PUBCHEM_ATOM_DEF_STEREO_COUNT>
0

> <PUBCHEM_ATOM_UDEF_STEREO_COUNT>
2

> <PUBCHEM_BOND_DEF_STEREO_COUNT>
1

> <PUBCHEM_BOND_UDEF_STEREO_COUNT>
0

> <PUBCHEM_ISOTOPIC_ATOM_COUNT>
0

> <PUBCHEM_COMPONENT_COUNT>
1

> <PUBCHEM_CACTVS_TAUTO_COUNT>
1

> <PUBCHEM_CONFORMER_ID>
006239AB00000001

> <PUBCHEM_MMFF94_ENERGY>
30.979

> <PUBCHEM_FEATURE_SELFOVERLAP>
20.297

> <PUBCHEM_SHAPE_FINGERPRINT>
10411042 1 17618786198641891038
10493431 412 18340778069874833073
10498660 4 18411135848642079772
10681291 71 18339936917224243441
12107183 9 18263634075449378466
12173636 292 18412257354802283270
12390115 104 18271264758327611961
12788726 201 18118394270613122243
13618510 140 18339079276737614501
14123255 52 18410294670717701540
14142880 1 18114457959024167405
14250199 8 17692807091550865629
14508225 48 17624122103012402007
14648413 74 17618226101020559643
14767858 380 18268973398266249301
14790565 3 18341906138582411513
15342168 16 18265333907008911093
15669948 3 18340196492289286314
15775835 57 18335139769588315104
17134986 127 18194967344236367750
1741750 31 18412261735853528368
17539 30 17984411103899156143
17834072 32 18410859841195822452
18785283 64 18050577235420270755
204376 136 18338518543303809577
20510252 161 18342462572937711843
20645477 56 18341902930224983888
20671657 1 18121223077897443166
21041028 32 17685227453093699347
21426921 1 18267586999470257910
21499 59 18338229350334139253
21524375 3 18198331880103789675
2255824 54 17836928893602271471
22620623 9 16629658765668259341
2306618 200 18057618739838922506
23402539 116 18127969917600664087
23526113 38 17489316269635370422
23557571 272 18127985293836252012
23558518 356 18260835929293472194
23559900 14 18201722839163528062
23598291 2 18187911881754389586
23598294 1 18337663225993905947
2748010 2 18267598909620512383
3071541 12 17908427952702129319
394222 165 18117555132866093267
441001 317 18340484590685965528
458136 41 18127140675622048723
474 4 18122623851795784857
474229 33 18410576189234727483
5939293 188 17112689290163181145
6327066 14 18335135375710710420
6333272 397 18338235947324628529
633830 44 18128538150411091917
68521 5 18195245748475316751
7364860 26 17622720921640123703
7808743 9 18410293648900847392
8199 26 18409730651465103536
84936 182 17913482441930377921
9981440 41 18409444756856269755

> <PUBCHEM_SHAPE_MULTIPOLES>
317.53
7.92
3.46
0.73
9.74
1.11
-0.03
-7.05
0.82
-2.45
0.12
0.16
0.03
-0.71

> <PUBCHEM_SHAPE_SELFOVERLAP>
645.727

> <PUBCHEM_SHAPE_VOLUME>
186.1

> <PUBCHEM_COORDINATE_TYPE>
2
5
10

$$$$
