6437428
  -OEChem-11232109063D

 40 40  0     1  0  0  0  0  0999 V2000
    3.4480   -2.0688   -0.7847 O   0  0  0  0  0  0  0  0  0  0  0  0
    2.4744    0.0589   -0.1385 C   0  0  1  0  0  0  0  0  0  0  0  0
    3.0999    1.0446    0.8504 C   0  0  0  0  0  0  0  0  0  0  0  0
    4.5844    1.0207    0.5098 C   0  0  0  0  0  0  0  0  0  0  0  0
    4.8944   -0.4513    0.2676 C   0  0  0  0  0  0  0  0  0  0  0  0
    3.5861   -0.9603   -0.2830 C   0  0  0  0  0  0  0  0  0  0  0  0
    1.1793   -0.5445    0.3665 C   0  0  0  0  0  0  0  0  0  0  0  0
    0.1087    0.5007    0.5034 C   0  0  0  0  0  0  0  0  0  0  0  0
   -0.7893    0.8972   -0.4200 C   0  0  0  0  0  0  0  0  0  0  0  0
   -1.8123    1.9958   -0.2199 C   0  0  0  0  0  0  0  0  0  0  0  0
   -3.2672    1.5263   -0.3494 C   0  0  0  0  0  0  0  0  0  0  0  0
   -0.7889    0.2638   -1.7883 C   0  0  0  0  0  0  0  0  0  0  0  0
   -3.6226    0.4544    0.6432 C   0  0  0  0  0  0  0  0  0  0  0  0
   -4.1489   -0.7613    0.4027 C   0  0  0  0  0  0  0  0  0  0  0  0
   -4.4812   -1.7886    1.4469 C   0  0  0  0  0  0  0  0  0  0  0  0
   -4.4651   -1.1876   -1.0067 C   0  0  0  0  0  0  0  0  0  0  0  0
    2.3477    0.5396   -1.1166 H   0  0  0  0  0  0  0  0  0  0  0  0
    2.9559    0.7164    1.8877 H   0  0  0  0  0  0  0  0  0  0  0  0
    2.6804    2.0509    0.7525 H   0  0  0  0  0  0  0  0  0  0  0  0
    5.2012    1.4450    1.3074 H   0  0  0  0  0  0  0  0  0  0  0  0
    4.7678    1.5994   -0.4038 H   0  0  0  0  0  0  0  0  0  0  0  0
    5.1121   -0.9725    1.2041 H   0  0  0  0  0  0  0  0  0  0  0  0
    5.7065   -0.5833   -0.4505 H   0  0  0  0  0  0  0  0  0  0  0  0
    1.3294   -1.0215    1.3440 H   0  0  0  0  0  0  0  0  0  0  0  0
    0.8505   -1.3590   -0.2891 H   0  0  0  0  0  0  0  0  0  0  0  0
    0.0864    1.0019    1.4703 H   0  0  0  0  0  0  0  0  0  0  0  0
   -1.6257    2.7916   -0.9521 H   0  0  0  0  0  0  0  0  0  0  0  0
   -1.6726    2.4573    0.7666 H   0  0  0  0  0  0  0  0  0  0  0  0
   -3.4470    1.2340   -1.3860 H   0  0  0  0  0  0  0  0  0  0  0  0
   -3.9231    2.3857   -0.1618 H   0  0  0  0  0  0  0  0  0  0  0  0
   -1.6227   -0.4369   -1.8863 H   0  0  0  0  0  0  0  0  0  0  0  0
   -0.8995    1.0359   -2.5582 H   0  0  0  0  0  0  0  0  0  0  0  0
    0.1314   -0.2730   -2.0305 H   0  0  0  0  0  0  0  0  0  0  0  0
   -3.4320    0.7175    1.6831 H   0  0  0  0  0  0  0  0  0  0  0  0
   -4.2136   -1.4422    2.4506 H   0  0  0  0  0  0  0  0  0  0  0  0
   -5.5538   -2.0071    1.4434 H   0  0  0  0  0  0  0  0  0  0  0  0
   -3.9326   -2.7166    1.2564 H   0  0  0  0  0  0  0  0  0  0  0  0
   -3.6770   -1.8460   -1.3857 H   0  0  0  0  0  0  0  0  0  0  0  0
   -4.6071   -0.3665   -1.7109 H   0  0  0  0  0  0  0  0  0  0  0  0
   -5.4058   -1.7506   -1.0225 H   0  0  0  0  0  0  0  0  0  0  0  0
  1  6  2  0  0  0  0
  2  3  1  0  0  0  0
  2  6  1  0  0  0  0
  2  7  1  0  0  0  0
  2 17  1  0  0  0  0
  3  4  1  0  0  0  0
  3 18  1  0  0  0  0
  3 19  1  0  0  0  0
  4  5  1  0  0  0  0
  4 20  1  0  0  0  0
  4 21  1  0  0  0  0
  5  6  1  0  0  0  0
  5 22  1  0  0  0  0
  5 23  1  0  0  0  0
  7  8  1  0  0  0  0
  7 24  1  0  0  0  0
  7 25  1  0  0  0  0
  8  9  2  0  0  0  0
  8 26  1  0  0  0  0
  9 10  1  0  0  0  0
  9 12  1  0  0  0  0
 10 11  1  0  0  0  0
 10 27  1  0  0  0  0
 10 28  1  0  0  0  0
 11 13  1  0  0  0  0
 11 29  1  0  0  0  0
 11 30  1  0  0  0  0
 12 31  1  0  0  0  0
 12 32  1  0  0  0  0
 12 33  1  0  0  0  0
 13 14  2  0  0  0  0
 13 34  1  0  0  0  0
 14 15  1  0  0  0  0
 14 16  1  0  0  0  0
 15 35  1  0  0  0  0
 15 36  1  0  0  0  0
 15 37  1  0  0  0  0
 16 38  1  0  0  0  0
 16 39  1  0  0  0  0
 16 40  1  0  0  0  0
M  END
> <PUBCHEM_COMPOUND_CID>
6437428

> <PUBCHEM_CONFORMER_RMSD>
0.8

> <PUBCHEM_CONFORMER_DIVERSEORDER>
3
70
77
141
180
222
30
95
139
177
134
9
230
76
136
156
145
80
45
91
167
92
35
228
138
208
13
217
191
118
123
51
111
170
205
66
178
25
119
188
187
127
199
149
103
22
107
215
132
58
152
15
61
83
73
114
135
130
168
216
87
5
147
176
98
40
122
63
203
96
50
34
164
198
206
68
41
59
113
89
31
160
102
10
154
155
4
229
37
116
218
125
24
56
121
12
124
128
137
220
179
201
106
109
21
100
159
46
226
54
49
120
78
195
146
57
231
2
65
173
158
221
162
19
97
175
6
81
60
117
183
17
71
99
105
8
64
1
33
189
90
94
84
75
126
86
101
192
53
186
150
194
204
110
39
14
88
193
52
225
42
142
202
32
85
55
211
16
196
108
151
163
223
212
36
18
171
43
144
93
161
67
23
48
26
28
44
200
112
157
133
104
74
190
148
27
153
143
184
174
213
131
182
38
62
7
29
82
197
209
185
11
207
165
115
140
47
214
210
169
227
20
129
219
172
224
181
166
79
69
72

> <PUBCHEM_MMFF94_PARTIAL_CHARGES>
16
1 -0.57
10 0.14
11 0.14
12 0.14
13 -0.29
14 -0.28
15 0.14
16 0.14
2 0.06
26 0.15
34 0.15
5 0.06
6 0.45
7 0.14
8 -0.29
9 -0.28

> <PUBCHEM_EFFECTIVE_ROTOR_COUNT>
5.8

> <PUBCHEM_PHARMACOPHORE_FEATURES>
5
1 1 acceptor
1 12 hydrophobe
3 14 15 16 hydrophobe
4 9 10 11 13 hydrophobe
5 2 3 4 5 6 rings

> <PUBCHEM_HEAVY_ATOM_COUNT>
16

> <PUBCHEM_ATOM_DEF_STEREO_COUNT>
0

> <PUBCHEM_ATOM_UDEF_STEREO_COUNT>
1

> <PUBCHEM_BOND_DEF_STEREO_COUNT>
1

> <PUBCHEM_BOND_UDEF_STEREO_COUNT>
0

> <PUBCHEM_ISOTOPIC_ATOM_COUNT>
0

> <PUBCHEM_COMPONENT_COUNT>
1

> <PUBCHEM_CACTVS_TAUTO_COUNT>
3

> <PUBCHEM_CONFORMER_ID>
00623A3400000003

> <PUBCHEM_MMFF94_ENERGY>
16.9511

> <PUBCHEM_FEATURE_SELFOVERLAP>
25.39

> <PUBCHEM_SHAPE_FINGERPRINT>
11046707 91 17967250905886430201
11370993 144 18058461915223416115
11405975 8 18268147548199363896
11552529 35 16987709272492644679
12596602 18 16056596598905207707
12616971 3 16805615736932383061
12633257 1 16988573445935409635
13237642 15 18341327868326735616
13544653 18 18411421739192979473
13583140 156 18201711834529316773
13911882 115 18340217361736032634
14004511 7 11743835867704484961
14123255 352 10880001241954559539
14251732 14 17896625992326299750
14251732 16 18260830440868073744
14289901 80 18343017787444023441
14787075 74 18338234989278299168
15420108 30 12259703513606782748
15880784 105 17917711340045078531
17349148 13 16153710911983425648
17834074 16 18411982438077369322
17844677 252 18060143128305338768
18785283 64 18055341690229652096
19026448 4 18339359665124613564
193927 3 17895490214511348691
19433438 15 14490468677825934455
200 152 14345790543695888188
20645477 70 17845363345961461022
20671657 53 16950284052803854173
21079973 296 18260550043199978835
21673915 165 18342736355522870599
221490 88 18341336574515802430
23402539 116 14923937938209416860
23557571 272 18188483584365915637
23559900 14 18335980865960925728
3268164 11 17313380089459171989
4325135 7 18260550065044223412
5104073 3 18341047419968502512
6430166 295 11455896853665388897
7495541 125 18273209824825733968
77779 3 18342738477310203808
9882013 296 17917712426587044613

> <PUBCHEM_SHAPE_MULTIPOLES>
323.4
11.36
1.85
1.19
1.57
0.11
0.22
3.86
-1.81
-0.97
-0.01
-0.75
0.23
1.19

> <PUBCHEM_SHAPE_SELFOVERLAP>
633.621

> <PUBCHEM_SHAPE_VOLUME>
196.3

> <PUBCHEM_COORDINATE_TYPE>
2
5
10

$$$$
