6437300
  -OEChem-11232109123D

 37 37  0     0  0  0  0  0  0999 V2000
   -1.0636    0.1794   -0.0266 O   0  0  0  0  0  0  0  0  0  0  0  0
   -0.0412    2.2426   -0.2152 O   0  0  0  0  0  0  0  0  0  0  0  0
   -4.8189    0.2980   -0.0397 C   0  0  0  0  0  0  0  0  0  0  0  0
   -5.9265   -0.7514    0.0907 C   0  0  0  0  0  0  0  0  0  0  0  0
   -3.4114   -0.2931    0.0241 C   0  0  0  0  0  0  0  0  0  0  0  0
   -7.3350   -0.1629    0.0021 C   0  0  0  0  0  0  0  0  0  0  0  0
   -2.3456    0.7902   -0.0767 C   0  0  0  0  0  0  0  0  0  0  0  0
   -8.3967   -1.2326    0.2095 C   0  0  0  0  0  0  0  0  0  0  0  0
    0.0031    1.0275   -0.1065 C   0  0  0  0  0  0  0  0  0  0  0  0
    1.2392    0.2154   -0.0398 C   0  0  0  0  0  0  0  0  0  0  0  0
    3.7300    0.1284   -0.0194 C   0  0  0  0  0  0  0  0  0  0  0  0
    2.4328    0.8241   -0.0872 C   0  0  0  0  0  0  0  0  0  0  0  0
    3.7909   -1.2239   -0.3148 C   0  0  0  0  0  0  0  0  0  0  0  0
    4.8637    0.8400    0.3386 C   0  0  0  0  0  0  0  0  0  0  0  0
    5.0187   -1.8826   -0.2503 C   0  0  0  0  0  0  0  0  0  0  0  0
    6.0916    0.1811    0.4029 C   0  0  0  0  0  0  0  0  0  0  0  0
    6.1690   -1.1802    0.1084 C   0  0  0  0  0  0  0  0  0  0  0  0
   -4.9429    0.8328   -0.9896 H   0  0  0  0  0  0  0  0  0  0  0  0
   -4.9367    1.0407    0.7591 H   0  0  0  0  0  0  0  0  0  0  0  0
   -5.8103   -1.2716    1.0499 H   0  0  0  0  0  0  0  0  0  0  0  0
   -5.8011   -1.5066   -0.6953 H   0  0  0  0  0  0  0  0  0  0  0  0
   -3.2765   -0.8504    0.9593 H   0  0  0  0  0  0  0  0  0  0  0  0
   -3.2704   -1.0222   -0.7833 H   0  0  0  0  0  0  0  0  0  0  0  0
   -7.4593    0.6182    0.7610 H   0  0  0  0  0  0  0  0  0  0  0  0
   -7.4791    0.3087   -0.9767 H   0  0  0  0  0  0  0  0  0  0  0  0
   -2.4528    1.3349   -1.0221 H   0  0  0  0  0  0  0  0  0  0  0  0
   -2.4470    1.4952    0.7568 H   0  0  0  0  0  0  0  0  0  0  0  0
   -8.2982   -1.6976    1.1956 H   0  0  0  0  0  0  0  0  0  0  0  0
   -8.3168   -2.0167   -0.5503 H   0  0  0  0  0  0  0  0  0  0  0  0
   -9.3963   -0.7924    0.1400 H   0  0  0  0  0  0  0  0  0  0  0  0
    1.1174   -0.8558    0.0699 H   0  0  0  0  0  0  0  0  0  0  0  0
    2.4902    1.9071   -0.1708 H   0  0  0  0  0  0  0  0  0  0  0  0
    2.9266   -1.8055   -0.6196 H   0  0  0  0  0  0  0  0  0  0  0  0
    4.8195    1.9005    0.5722 H   0  0  0  0  0  0  0  0  0  0  0  0
    5.0807   -2.9414   -0.4843 H   0  0  0  0  0  0  0  0  0  0  0  0
    6.9875    0.7279    0.6823 H   0  0  0  0  0  0  0  0  0  0  0  0
    7.1252   -1.6928    0.1573 H   0  0  0  0  0  0  0  0  0  0  0  0
  1  7  1  0  0  0  0
  1  9  1  0  0  0  0
  2  9  2  0  0  0  0
  3  4  1  0  0  0  0
  3  5  1  0  0  0  0
  3 18  1  0  0  0  0
  3 19  1  0  0  0  0
  4  6  1  0  0  0  0
  4 20  1  0  0  0  0
  4 21  1  0  0  0  0
  5  7  1  0  0  0  0
  5 22  1  0  0  0  0
  5 23  1  0  0  0  0
  6  8  1  0  0  0  0
  6 24  1  0  0  0  0
  6 25  1  0  0  0  0
  7 26  1  0  0  0  0
  7 27  1  0  0  0  0
  8 28  1  0  0  0  0
  8 29  1  0  0  0  0
  8 30  1  0  0  0  0
  9 10  1  0  0  0  0
 10 12  2  0  0  0  0
 10 31  1  0  0  0  0
 11 12  1  0  0  0  0
 11 13  2  0  0  0  0
 11 14  1  0  0  0  0
 12 32  1  0  0  0  0
 13 15  1  0  0  0  0
 13 33  1  0  0  0  0
 14 16  2  0  0  0  0
 14 34  1  0  0  0  0
 15 17  2  0  0  0  0
 15 35  1  0  0  0  0
 16 17  1  0  0  0  0
 16 36  1  0  0  0  0
 17 37  1  0  0  0  0
M  END
> <PUBCHEM_COMPOUND_CID>
6437300

> <PUBCHEM_CONFORMER_RMSD>
0.8

> <PUBCHEM_CONFORMER_DIVERSEORDER>
1
123
53
114
9
46
147
90
177
27
157
129
83
4
92
13
151
23
89
161
8
30
42
98
105
6
181
7
166
101
5
88
24
128
104
172
2
179
112
14
77
85
61
154
153
31
102
82
173
26
165
28
84
145
3
47
73
108
146
183
79
171
91
78
141
33
135
41
18
93
175
111
138
60
115
95
58
155
45
148
67
152
25
156
49
39
164
99
12
96
169
17
144
52
16
66
57
158
163
70
109
136
87
81
167
126
86
44
10
168
116
37
178
19
174
159
40
133
107
65
119
121
110
180
59
170
72
130
97
38
124
32
54
143
140
162
103
56
76
15
127
122
106
20
176
113
150
35
120
34
62
74
63
68
142
71
134
64
131
80
139
21
50
22
137
11
132
69
29
118
182
100
51
94
36
75
125
43
55
149
160
48
117

> <PUBCHEM_MMFF94_PARTIAL_CHARGES>
19
1 -0.43
10 -0.14
11 0.03
12 -0.18
13 -0.15
14 -0.15
15 -0.15
16 -0.15
17 -0.15
2 -0.57
31 0.15
32 0.15
33 0.15
34 0.15
35 0.15
36 0.15
37 0.15
7 0.28
9 0.71

> <PUBCHEM_EFFECTIVE_ROTOR_COUNT>
8

> <PUBCHEM_PHARMACOPHORE_FEATURES>
4
1 2 acceptor
1 8 hydrophobe
4 3 4 5 6 hydrophobe
6 11 13 14 15 16 17 rings

> <PUBCHEM_HEAVY_ATOM_COUNT>
17

> <PUBCHEM_ATOM_DEF_STEREO_COUNT>
0

> <PUBCHEM_ATOM_UDEF_STEREO_COUNT>
0

> <PUBCHEM_BOND_DEF_STEREO_COUNT>
1

> <PUBCHEM_BOND_UDEF_STEREO_COUNT>
0

> <PUBCHEM_ISOTOPIC_ATOM_COUNT>
0

> <PUBCHEM_COMPONENT_COUNT>
1

> <PUBCHEM_CACTVS_TAUTO_COUNT>
1

> <PUBCHEM_CONFORMER_ID>
006239B400000001

> <PUBCHEM_MMFF94_ENERGY>
28.3864

> <PUBCHEM_FEATURE_SELFOVERLAP>
20.297

> <PUBCHEM_SHAPE_FINGERPRINT>
10354089 29 13614520757867901962
106641 1 17846775230776965554
11638347 137 15051740776329083719
125118 31 11527952266140122699
12516196 113 18342737420653362073
13533116 47 18273214213997454232
13668630 136 18259704497779494907
13685833 64 18410012139453024347
13885169 127 18408602531840981701
13968360 50 14707198907607576336
14123256 10 12612751320060350111
14178184 131 18128538370341641095
1420 363 18407761430128515566
14251757 52 13830122941029387626
14251764 18 17989208157519862025
14251764 46 18410292518764675107
14729087 3 12751246883449309323
15048467 5 9367347033541439415
15183329 4 15502374513435383605
15690457 1 18201997759920360167
15716309 27 18131068247342127471
1768 124 17989207044944719135
17834072 8 17167582696027168003
18006028 8 18413669115211767105
20281389 69 11455896849454979875
20397935 70 17703797989949286262
20621476 66 10087636009786036281
20621476 8 18040433266640401165
20645477 70 18340486656739184966
20735858 18 16917069962676014287
21130983 4 9727635012342216647
21150785 3 16370729235581785743
21267235 1 18272373032484886486
21623969 137 18273217478046213159
22224240 67 12823294598682693629
23035841 295 18260547827598305675
23559900 14 18263360460078631609
246663 6 17458068179818983523
28498 318 18408601449371637951
29717793 49 17822014211196359413
3004659 81 17894631461069085580
33532 11 18410009927556001091
4325135 7 18261395568353960228
4340502 62 15123511397652879044
465052 167 18272373061916687510
5104073 3 18129092326305295600
5758199 1 11024113157718912517
59682541 35 18343011217093354034
59755656 215 17603302640118856051
8209 1 18259983786665019285

> <PUBCHEM_SHAPE_MULTIPOLES>
338.11
22.54
1.55
0.64
33.83
0.02
0.01
10.65
1.98
-1.15
-0.1
-0.11
0.02
0.44

> <PUBCHEM_SHAPE_SELFOVERLAP>
672.945

> <PUBCHEM_SHAPE_VOLUME>
200.3

> <PUBCHEM_COORDINATE_TYPE>
2
5
10

$$$$
