6437739
  -OEChem-11232109233D

 43 43  0     1  0  0  0  0  0999 V2000
   -2.2384    1.0528    1.6244 O   0  0  0  0  0  0  0  0  0  0  0  0
    2.0118   -1.2847   -0.1049 C   0  0  0  0  0  0  0  0  0  0  0  0
    1.3761    0.0793   -0.5526 C   0  0  2  0  0  0  0  0  0  0  0  0
    2.7498   -1.0948    1.2414 C   0  0  0  0  0  0  0  0  0  0  0  0
    3.8130    0.0061    1.1933 C   0  0  0  0  0  0  0  0  0  0  0  0
    2.3565    1.2395   -0.4464 C   0  0  0  0  0  0  0  0  0  0  0  0
    0.9448   -2.3894    0.0563 C   0  0  0  0  0  0  0  0  0  0  0  0
    3.0053   -1.7781   -1.1864 C   0  0  0  0  0  0  0  0  0  0  0  0
    3.4411    1.1868    0.3476 C   0  0  0  0  0  0  0  0  0  0  0  0
    0.1175    0.4286    0.1974 C   0  0  0  0  0  0  0  0  0  0  0  0
    2.0677    2.4503   -1.2905 C   0  0  0  0  0  0  0  0  0  0  0  0
   -1.0775    0.5626   -0.3922 C   0  0  0  0  0  0  0  0  0  0  0  0
   -2.2882    0.9112    0.4053 C   0  0  0  0  0  0  0  0  0  0  0  0
   -3.5838    1.0351   -0.3820 C   0  0  0  0  0  0  0  0  0  0  0  0
   -4.3722   -0.2812   -0.4686 C   0  0  0  0  0  0  0  0  0  0  0  0
   -4.7607   -0.7530    0.9338 C   0  0  0  0  0  0  0  0  0  0  0  0
   -3.5630   -1.3710   -1.1759 C   0  0  0  0  0  0  0  0  0  0  0  0
    1.1247   -0.0333   -1.6180 H   0  0  0  0  0  0  0  0  0  0  0  0
    3.2215   -2.0335    1.5588 H   0  0  0  0  0  0  0  0  0  0  0  0
    2.0241   -0.8454    2.0269 H   0  0  0  0  0  0  0  0  0  0  0  0
    4.7507   -0.4094    0.8049 H   0  0  0  0  0  0  0  0  0  0  0  0
    4.0219    0.3443    2.2149 H   0  0  0  0  0  0  0  0  0  0  0  0
    1.4121   -3.3570    0.2736 H   0  0  0  0  0  0  0  0  0  0  0  0
    0.2552   -2.1777    0.8805 H   0  0  0  0  0  0  0  0  0  0  0  0
    0.3542   -2.5042   -0.8596 H   0  0  0  0  0  0  0  0  0  0  0  0
    3.4987   -2.7047   -0.8712 H   0  0  0  0  0  0  0  0  0  0  0  0
    2.4837   -1.9861   -2.1279 H   0  0  0  0  0  0  0  0  0  0  0  0
    3.7902   -1.0486   -1.4066 H   0  0  0  0  0  0  0  0  0  0  0  0
    4.1226    2.0331    0.3833 H   0  0  0  0  0  0  0  0  0  0  0  0
    0.2101    0.5738    1.2713 H   0  0  0  0  0  0  0  0  0  0  0  0
    2.0121    2.1706   -2.3476 H   0  0  0  0  0  0  0  0  0  0  0  0
    2.8451    3.2155   -1.1926 H   0  0  0  0  0  0  0  0  0  0  0  0
    1.1168    2.9075   -1.0003 H   0  0  0  0  0  0  0  0  0  0  0  0
   -1.1937    0.4315   -1.4621 H   0  0  0  0  0  0  0  0  0  0  0  0
   -3.3604    1.4107   -1.3881 H   0  0  0  0  0  0  0  0  0  0  0  0
   -4.1891    1.8138    0.0985 H   0  0  0  0  0  0  0  0  0  0  0  0
   -5.2873   -0.0937   -1.0433 H   0  0  0  0  0  0  0  0  0  0  0  0
   -3.8919   -1.0553    1.5274 H   0  0  0  0  0  0  0  0  0  0  0  0
   -5.2939    0.0332    1.4786 H   0  0  0  0  0  0  0  0  0  0  0  0
   -5.4275   -1.6200    0.8692 H   0  0  0  0  0  0  0  0  0  0  0  0
   -2.7034   -1.7039   -0.5861 H   0  0  0  0  0  0  0  0  0  0  0  0
   -3.2077   -1.0256   -2.1523 H   0  0  0  0  0  0  0  0  0  0  0  0
   -4.1924   -2.2513   -1.3490 H   0  0  0  0  0  0  0  0  0  0  0  0
  1 13  2  0  0  0  0
  2  3  1  0  0  0  0
  2  4  1  0  0  0  0
  2  7  1  0  0  0  0
  2  8  1  0  0  0  0
  3  6  1  0  0  0  0
  3 10  1  0  0  0  0
  3 18  1  0  0  0  0
  4  5  1  0  0  0  0
  4 19  1  0  0  0  0
  4 20  1  0  0  0  0
  5  9  1  0  0  0  0
  5 21  1  0  0  0  0
  5 22  1  0  0  0  0
  6  9  2  0  0  0  0
  6 11  1  0  0  0  0
  7 23  1  0  0  0  0
  7 24  1  0  0  0  0
  7 25  1  0  0  0  0
  8 26  1  0  0  0  0
  8 27  1  0  0  0  0
  8 28  1  0  0  0  0
  9 29  1  0  0  0  0
 10 12  2  0  0  0  0
 10 30  1  0  0  0  0
 11 31  1  0  0  0  0
 11 32  1  0  0  0  0
 11 33  1  0  0  0  0
 12 13  1  0  0  0  0
 12 34  1  0  0  0  0
 13 14  1  0  0  0  0
 14 15  1  0  0  0  0
 14 35  1  0  0  0  0
 14 36  1  0  0  0  0
 15 16  1  0  0  0  0
 15 17  1  0  0  0  0
 15 37  1  0  0  0  0
 16 38  1  0  0  0  0
 16 39  1  0  0  0  0
 16 40  1  0  0  0  0
 17 41  1  0  0  0  0
 17 42  1  0  0  0  0
 17 43  1  0  0  0  0
M  END
> <PUBCHEM_COMPOUND_CID>
6437739

> <PUBCHEM_CONFORMER_RMSD>
0.6

> <PUBCHEM_CONFORMER_DIVERSEORDER>
3
101
26
102
73
42
91
98
44
9
110
4
45
6
11
16
104
105
43
49
81
97
96
14
19
111
83
67
60
8
51
108
38
13
82
106
36
89
92
63
34
12
57
68
55
15
103
65
24
109
41
79
71
107
7
64
39
95
30
22
10
23
77
2
53
25
46
75
28
66
87
47
18
20
61
35
1
86
33
72
59
76
29
54
40
31
52
21
56
5
74
90
50
58
62
37
48
84
17
99
94
80
27
85
70
88
32
100
78
69
93

> <PUBCHEM_MMFF94_PARTIAL_CHARGES>
13
1 -0.57
10 -0.29
11 0.14
12 -0.14
13 0.49
14 0.06
29 0.15
3 0.28
30 0.15
34 0.15
5 0.14
6 -0.28
9 -0.29

> <PUBCHEM_EFFECTIVE_ROTOR_COUNT>
4.8

> <PUBCHEM_PHARMACOPHORE_FEATURES>
4
1 1 acceptor
3 15 16 17 hydrophobe
3 2 7 8 hydrophobe
6 2 3 4 5 6 9 rings

> <PUBCHEM_HEAVY_ATOM_COUNT>
17

> <PUBCHEM_ATOM_DEF_STEREO_COUNT>
0

> <PUBCHEM_ATOM_UDEF_STEREO_COUNT>
1

> <PUBCHEM_BOND_DEF_STEREO_COUNT>
1

> <PUBCHEM_BOND_UDEF_STEREO_COUNT>
0

> <PUBCHEM_ISOTOPIC_ATOM_COUNT>
0

> <PUBCHEM_COMPONENT_COUNT>
1

> <PUBCHEM_CACTVS_TAUTO_COUNT>
5

> <PUBCHEM_CONFORMER_ID>
00623B6B00000003

> <PUBCHEM_MMFF94_ENERGY>
29.5879

> <PUBCHEM_FEATURE_SELFOVERLAP>
20.297

> <PUBCHEM_SHAPE_FINGERPRINT>
128620 24 18343021107791132261
13134695 92 17458616796891706940
13224815 77 18272653458840710803
14178342 30 18122899837361069392
14251717 144 18408038515643329599
14251764 3 16516227622486868191
14289901 80 18131632270631145601
14787075 74 17987502883145515330
14844126 61 16170301112170638098
15239154 128 11095884886785496035
15375462 189 18201722911835139163
15536298 74 18273495645781872726
17349148 13 18408878559743898970
17492 89 18410013200384403571
18186145 218 18187649063877767901
19050596 39 18343581858774084649
200 152 18410004451493375373
20279233 1 17095528395907565193
20281475 54 17989487437815822263
20559304 39 18202566172323069560
20645477 70 18187087273354545925
21501925 9 18335133180960673057
2255824 54 18333456438913786638
23402539 116 17676756604838239381
23557571 272 17203333264743522057
23559900 14 18059855004581700998
23598291 2 18269854029069267237
3060560 45 18408048416123215582
312423 11 18269857362100980385
3286 77 17458056049755192502
58051976 100 18264212409670049397
58051976 378 18337950194412746261
581208 293 18409448081118472308
6333272 397 18408323319351673906
9709674 26 18334861623485721403

> <PUBCHEM_SHAPE_MULTIPOLES>
343.98
8.8
2.19
1.3
8.46
0.16
0.13
0.87
0.89
-1.48
-0.62
-0.14
0.03
-0.47

> <PUBCHEM_SHAPE_SELFOVERLAP>
680.271

> <PUBCHEM_SHAPE_VOLUME>
204.7

> <PUBCHEM_COORDINATE_TYPE>
2
5
10

$$$$
