6437407
  -OEChem-11232109053D

 26 25  0     0  0  0  0  0  0999 V2000
   -2.1496    0.7213    0.2782 O   0  0  0  0  0  0  0  0  0  0  0  0
   -1.1869   -1.4400    0.1194 O   0  0  0  0  0  0  0  0  0  0  0  0
    0.0899    0.4415   -0.6590 C   0  0  0  0  0  0  0  0  0  0  0  0
   -1.3196   -0.1502   -0.4959 C   0  0  0  0  0  0  0  0  0  0  0  0
    0.7764    0.6837    0.6585 C   0  0  0  0  0  0  0  0  0  0  0  0
    2.1068    0.6409    0.8242 C   0  0  0  0  0  0  0  0  0  0  0  0
    3.0759    0.3466   -0.2821 C   0  0  0  0  0  0  0  0  0  0  0  0
    3.3518   -1.1447   -0.3935 C   0  0  0  0  0  0  0  0  0  0  0  0
   -2.3097    2.0078   -0.3034 C   0  0  0  0  0  0  0  0  0  0  0  0
   -2.4351   -2.1069    0.2535 C   0  0  0  0  0  0  0  0  0  0  0  0
    0.6666   -0.2633   -1.2676 H   0  0  0  0  0  0  0  0  0  0  0  0
    0.0501    1.3875   -1.2090 H   0  0  0  0  0  0  0  0  0  0  0  0
   -1.7686   -0.2888   -1.4881 H   0  0  0  0  0  0  0  0  0  0  0  0
    0.1650    0.9329    1.5218 H   0  0  0  0  0  0  0  0  0  0  0  0
    2.5183    0.8261    1.8129 H   0  0  0  0  0  0  0  0  0  0  0  0
    4.0130    0.8757   -0.0716 H   0  0  0  0  0  0  0  0  0  0  0  0
    2.7239    0.7369   -1.2434 H   0  0  0  0  0  0  0  0  0  0  0  0
    4.0798   -1.3337   -1.1890 H   0  0  0  0  0  0  0  0  0  0  0  0
    3.7656   -1.5401    0.5406 H   0  0  0  0  0  0  0  0  0  0  0  0
    2.4445   -1.7106   -0.6275 H   0  0  0  0  0  0  0  0  0  0  0  0
   -3.1603    2.4923    0.1847 H   0  0  0  0  0  0  0  0  0  0  0  0
   -2.5240    1.9386   -1.3744 H   0  0  0  0  0  0  0  0  0  0  0  0
   -1.4307    2.6324   -0.1239 H   0  0  0  0  0  0  0  0  0  0  0  0
   -3.0923   -1.5660    0.9405 H   0  0  0  0  0  0  0  0  0  0  0  0
   -2.2484   -3.1015    0.6676 H   0  0  0  0  0  0  0  0  0  0  0  0
   -2.9181   -2.2211   -0.7216 H   0  0  0  0  0  0  0  0  0  0  0  0
  1  4  1  0  0  0  0
  1  9  1  0  0  0  0
  2  4  1  0  0  0  0
  2 10  1  0  0  0  0
  3  4  1  0  0  0  0
  3  5  1  0  0  0  0
  3 11  1  0  0  0  0
  3 12  1  0  0  0  0
  4 13  1  0  0  0  0
  5  6  2  0  0  0  0
  5 14  1  0  0  0  0
  6  7  1  0  0  0  0
  6 15  1  0  0  0  0
  7  8  1  0  0  0  0
  7 16  1  0  0  0  0
  7 17  1  0  0  0  0
  8 18  1  0  0  0  0
  8 19  1  0  0  0  0
  8 20  1  0  0  0  0
  9 21  1  0  0  0  0
  9 22  1  0  0  0  0
  9 23  1  0  0  0  0
 10 24  1  0  0  0  0
 10 25  1  0  0  0  0
 10 26  1  0  0  0  0
M  END
> <PUBCHEM_COMPOUND_CID>
6437407

> <PUBCHEM_CONFORMER_RMSD>
0.6

> <PUBCHEM_CONFORMER_DIVERSEORDER>
16
11
10
3
44
18
19
22
48
38
6
40
23
33
15
30
1
29
37
42
46
27
12
28
34
41
43
5
47
20
39
17
35
45
14
2
24
26
36
13
31
9
4
8
21
25
7
32

> <PUBCHEM_MMFF94_PARTIAL_CHARGES>
11
1 -0.56
10 0.28
14 0.15
15 0.15
2 -0.56
3 0.14
4 0.56
5 -0.29
6 -0.29
7 0.14
9 0.28

> <PUBCHEM_EFFECTIVE_ROTOR_COUNT>
5

> <PUBCHEM_PHARMACOPHORE_FEATURES>
3
1 1 acceptor
1 2 acceptor
1 8 hydrophobe

> <PUBCHEM_HEAVY_ATOM_COUNT>
10

> <PUBCHEM_ATOM_DEF_STEREO_COUNT>
0

> <PUBCHEM_ATOM_UDEF_STEREO_COUNT>
0

> <PUBCHEM_BOND_DEF_STEREO_COUNT>
1

> <PUBCHEM_BOND_UDEF_STEREO_COUNT>
0

> <PUBCHEM_ISOTOPIC_ATOM_COUNT>
0

> <PUBCHEM_COMPONENT_COUNT>
1

> <PUBCHEM_CACTVS_TAUTO_COUNT>
1

> <PUBCHEM_CONFORMER_ID>
00623A1F00000010

> <PUBCHEM_MMFF94_ENERGY>
17.3497

> <PUBCHEM_FEATURE_SELFOVERLAP>
15.259

> <PUBCHEM_SHAPE_FINGERPRINT>
12716758 59 18412258402637309192
12932741 1 18130497608959649752
12932764 1 17417809616685193044
15310529 11 18271807994554964460
19973954 147 18340763857469243888
20201158 50 18059012757690735086
20715346 28 17917422168412945040
20871998 184 18342741870418725039
23552423 10 18260547857277896222
3248919 1 18337939173700958700
449060 23 18115868675229090626
81228 2 18264196071382275297
9939556 21 18187370909058541780

> <PUBCHEM_SHAPE_MULTIPOLES>
194.06
5.15
1.96
0.84
2.88
0.5
-0.03
0.86
0.29
-1.88
-0.04
0.2
-0.08
0.54

> <PUBCHEM_SHAPE_SELFOVERLAP>
350.924

> <PUBCHEM_SHAPE_VOLUME>
124.7

> <PUBCHEM_COORDINATE_TYPE>
2
5
10

$$$$
