6437654
  -OEChem-11232111213D

 38 37  0     0  0  0  0  0  0999 V2000
   -1.6747   -1.0404    0.8839 O   0  0  0  0  0  0  0  0  0  0  0  0
   -2.0326   -2.7553   -0.6280 O   0  0  0  0  0  0  0  0  0  0  0  0
    3.2160    0.1122    0.3839 C   0  0  0  0  0  0  0  0  0  0  0  0
    3.4370   -0.9877   -0.6602 C   0  0  0  0  0  0  0  0  0  0  0  0
    3.8551    1.4298   -0.0564 C   0  0  0  0  0  0  0  0  0  0  0  0
    2.7871   -2.3166   -0.2706 C   0  0  0  0  0  0  0  0  0  0  0  0
    3.6146    2.5333    0.9615 C   0  0  0  0  0  0  0  0  0  0  0  0
   -3.5952    0.1456    0.0218 C   0  0  0  0  0  0  0  0  0  0  0  0
    1.3251   -2.2126   -0.1682 C   0  0  0  0  0  0  0  0  0  0  0  0
   -3.0867   -0.8663    1.0417 C   0  0  0  0  0  0  0  0  0  0  0  0
   -2.9075    1.4740    0.1664 C   0  0  0  0  0  0  0  0  0  0  0  0
   -1.4978    3.3755   -0.6598 C   0  0  0  0  0  0  0  0  0  0  0  0
   -2.1911    2.0538   -0.8080 C   0  0  0  0  0  0  0  0  0  0  0  0
   -0.0781    3.2016   -0.1434 C   0  0  0  0  0  0  0  0  0  0  0  0
    0.1303   -2.1268   -0.0830 C   0  0  0  0  0  0  0  0  0  0  0  0
   -1.3014   -2.0201    0.0184 C   0  0  0  0  0  0  0  0  0  0  0  0
    2.1441    0.2762    0.5437 H   0  0  0  0  0  0  0  0  0  0  0  0
    3.6419   -0.2026    1.3444 H   0  0  0  0  0  0  0  0  0  0  0  0
    3.0404   -0.6560   -1.6284 H   0  0  0  0  0  0  0  0  0  0  0  0
    4.5137   -1.1480   -0.7944 H   0  0  0  0  0  0  0  0  0  0  0  0
    3.4394    1.7391   -1.0226 H   0  0  0  0  0  0  0  0  0  0  0  0
    4.9339    1.2941   -0.1950 H   0  0  0  0  0  0  0  0  0  0  0  0
    3.0443   -3.0717   -1.0226 H   0  0  0  0  0  0  0  0  0  0  0  0
    3.2011   -2.6645    0.6829 H   0  0  0  0  0  0  0  0  0  0  0  0
    2.5456    2.7003    1.1197 H   0  0  0  0  0  0  0  0  0  0  0  0
    4.0587    3.4717    0.6153 H   0  0  0  0  0  0  0  0  0  0  0  0
    4.0665    2.2794    1.9258 H   0  0  0  0  0  0  0  0  0  0  0  0
   -3.4470   -0.2475   -0.9911 H   0  0  0  0  0  0  0  0  0  0  0  0
   -4.6727    0.2897    0.1587 H   0  0  0  0  0  0  0  0  0  0  0  0
   -3.6237   -1.8185    0.9554 H   0  0  0  0  0  0  0  0  0  0  0  0
   -3.2546   -0.5008    2.0612 H   0  0  0  0  0  0  0  0  0  0  0  0
   -3.0192    1.9838    1.1204 H   0  0  0  0  0  0  0  0  0  0  0  0
   -1.4845    3.8835   -1.6307 H   0  0  0  0  0  0  0  0  0  0  0  0
   -2.0565    4.0245    0.0253 H   0  0  0  0  0  0  0  0  0  0  0  0
   -2.0704    1.5439   -1.7605 H   0  0  0  0  0  0  0  0  0  0  0  0
    0.4156    4.1751   -0.0596 H   0  0  0  0  0  0  0  0  0  0  0  0
    0.5160    2.5783   -0.8205 H   0  0  0  0  0  0  0  0  0  0  0  0
   -0.0700    2.7327    0.8464 H   0  0  0  0  0  0  0  0  0  0  0  0
  1 10  1  0  0  0  0
  1 16  1  0  0  0  0
  2 16  2  0  0  0  0
  3  4  1  0  0  0  0
  3  5  1  0  0  0  0
  3 17  1  0  0  0  0
  3 18  1  0  0  0  0
  4  6  1  0  0  0  0
  4 19  1  0  0  0  0
  4 20  1  0  0  0  0
  5  7  1  0  0  0  0
  5 21  1  0  0  0  0
  5 22  1  0  0  0  0
  6  9  1  0  0  0  0
  6 23  1  0  0  0  0
  6 24  1  0  0  0  0
  7 25  1  0  0  0  0
  7 26  1  0  0  0  0
  7 27  1  0  0  0  0
  8 10  1  0  0  0  0
  8 11  1  0  0  0  0
  8 28  1  0  0  0  0
  8 29  1  0  0  0  0
  9 15  3  0  0  0  0
 10 30  1  0  0  0  0
 10 31  1  0  0  0  0
 11 13  2  0  0  0  0
 11 32  1  0  0  0  0
 12 13  1  0  0  0  0
 12 14  1  0  0  0  0
 12 33  1  0  0  0  0
 12 34  1  0  0  0  0
 13 35  1  0  0  0  0
 14 36  1  0  0  0  0
 14 37  1  0  0  0  0
 14 38  1  0  0  0  0
 15 16  1  0  0  0  0
M  END
> <PUBCHEM_COMPOUND_CID>
6437654

> <PUBCHEM_CONFORMER_RMSD>
0.8

> <PUBCHEM_CONFORMER_DIVERSEORDER>
3
108
157
63
142
278
189
267
275
424
407
372
26
329
208
78
429
356
101
311
413
371
217
338
248
58
51
207
411
24
445
254
375
214
23
433
316
233
83
206
239
307
422
362
164
18
430
281
180
355
172
201
216
280
129
452
359
443
406
368
181
259
249
1
144
256
20
227
67
154
431
447
333
141
223
166
454
115
339
380
420
196
446
415
98
240
122
419
245
389
155
143
149
81
244
384
75
270
147
28
134
212
45
450
146
402
319
9
364
199
442
36
173
14
434
137
412
40
232
360
252
350
417
125
374
65
159
272
315
332
102
8
287
260
277
194
401
195
224
378
55
297
438
96
169
255
218
427
276
185
296
2
203
106
15
261
86
104
274
163
105
400
5
262
220
113
423
19
330
414
328
341
97
221
236
243
426
241
116
405
313
192
90
80
57
266
432
162
135
225
49
294
38
351
300
295
242
421
131
158
385
4
282
95
322
153
318
395
7
231
219
302
33
440
48
198
347
436
229
52
50
370
398
353
29
174
390
109
111
365
451
235
265
342
34
288
425
448
444
271
136
453
230
293
264
263
237
190
176
335
37
215
202
41
304
269
175
213
310
381
410
93
128
152
204
139
21
46
257
27
43
160
331
397
10
449
285
268
12
112
439
251
312
349
56
16
323
200
92
114
17
130
404
334
54
301
148
62
170
61
60
409
283
228
298
123
168
303
210
337
42
13
253
234
238
358
127
69
132
377
11
441
124
121
140
151
416
182
70
343
348
392
211
258
161
308
193
74
289
76
187
88
178
408
120
290
336
250
156
183
399
306
357
386
226
352
388
82
246
327
305
35
428
30
366
345
292
25
394
66
177
299
85
314
184
100
117
31
110
279
91
79
382
361
367
6
99
94
324
205
167
71
455
44
291
391
77
325
396
47
165
317
84
309
118
188
64
32
403
39
22
119
73
354
171
186
273
222
59
383
321
138
107
53
326
376
247
435
284
340
344
145
373
179
379
320
209
393
103
197
68
418
126
191
87
133
369
346
437
286
89
363
72
387
150

> <PUBCHEM_MMFF94_PARTIAL_CHARGES>
13
1 -0.43
10 0.28
11 -0.29
12 0.14
13 -0.29
15 -0.1
16 0.83
2 -0.57
32 0.15
35 0.15
6 0.2
8 0.14
9 -0.2

> <PUBCHEM_EFFECTIVE_ROTOR_COUNT>
8

> <PUBCHEM_PHARMACOPHORE_FEATURES>
4
1 14 hydrophobe
1 2 acceptor
1 7 hydrophobe
5 3 4 5 6 9 hydrophobe

> <PUBCHEM_HEAVY_ATOM_COUNT>
16

> <PUBCHEM_ATOM_DEF_STEREO_COUNT>
0

> <PUBCHEM_ATOM_UDEF_STEREO_COUNT>
0

> <PUBCHEM_BOND_DEF_STEREO_COUNT>
1

> <PUBCHEM_BOND_UDEF_STEREO_COUNT>
0

> <PUBCHEM_ISOTOPIC_ATOM_COUNT>
0

> <PUBCHEM_COMPONENT_COUNT>
1

> <PUBCHEM_CACTVS_TAUTO_COUNT>
1

> <PUBCHEM_CONFORMER_ID>
00623B1600000003

> <PUBCHEM_MMFF94_ENERGY>
0.361

> <PUBCHEM_FEATURE_SELFOVERLAP>
20.297

> <PUBCHEM_SHAPE_FINGERPRINT>
10498660 4 18337949103380478046
10670039 82 18046639064649307700
11615756 56 18194118521264986222
12038231 1 18050286169887082948
12539773 59 17487067914137439335
12769317 202 16746200065708713461
13122387 1 17761492495910678452
13402501 40 18411136944006504776
14251705 54 18335709320933155948
14466204 15 18119803609050915282
15006816 218 18338801216181049204
15322687 12 17399226456784203637
20398071 114 17974283218638050044
20621476 13 18411131459206758100
20765182 5 16250524371452528328
21652331 79 18409173203232971619
22182937 141 17834967364863568089
23503958 25 18263381251419205738
23590187 86 18266178327279662884
3524813 1 18339081484461470544
58250162 1 18046931512840217668
59345606 82 18266459802266897000

> <PUBCHEM_SHAPE_MULTIPOLES>
317.53
7.36
4.7
0.91
3.36
2.05
0.08
1.82
0.65
0.02
-0.55
-0.09
0.14
1.42

> <PUBCHEM_SHAPE_SELFOVERLAP>
593.408

> <PUBCHEM_SHAPE_VOLUME>
196.9

> <PUBCHEM_COORDINATE_TYPE>
2
5
10

$$$$
