6437243
  -OEChem-11232109143D

 51 53  0     1  0  0  0  0  0999 V2000
   -3.3498   -0.3602   -0.1485 O   0  0  0  0  0  0  0  0  0  0  0  0
   -5.4082   -1.2345    0.4186 O   0  0  0  0  0  0  0  0  0  0  0  0
    3.7296    1.1467    0.6466 C   0  0  0  0  0  0  0  0  0  0  0  0
    4.9235    1.2952   -0.2460 C   0  0  2  0  0  0  0  0  0  0  0  0
    3.5988    1.8136   -0.6884 C   0  0  1  0  0  0  0  0  0  0  0  0
    3.2116   -0.2806    0.5248 C   0  0  2  0  0  0  0  0  0  0  0  0
    3.6532   -0.4450   -0.9900 C   0  0  0  0  0  0  0  0  0  0  0  0
    5.1601   -0.0143   -0.9660 C   0  0  0  0  0  0  0  0  0  0  0  0
    3.0311    0.8190   -1.6771 C   0  0  0  0  0  0  0  0  0  0  0  0
    3.6118    1.9167    1.9015 C   0  0  0  0  0  0  0  0  0  0  0  0
    1.6970   -0.3844    0.7388 C   0  0  0  0  0  0  0  0  0  0  0  0
    3.9146   -1.2531    1.4795 C   0  0  0  0  0  0  0  0  0  0  0  0
    1.1789   -1.7552    0.3210 C   0  0  0  0  0  0  0  0  0  0  0  0
   -0.3037   -1.8561    0.5429 C   0  0  0  0  0  0  0  0  0  0  0  0
   -1.2888   -1.5529   -0.3241 C   0  0  0  0  0  0  0  0  0  0  0  0
   -2.7594   -1.6466   -0.0196 C   0  0  0  0  0  0  0  0  0  0  0  0
   -0.9552   -1.0450   -1.7030 C   0  0  0  0  0  0  0  0  0  0  0  0
   -4.6957   -0.2922    0.1010 C   0  0  0  0  0  0  0  0  0  0  0  0
   -5.1644    1.1336   -0.0791 C   0  0  0  0  0  0  0  0  0  0  0  0
   -6.6656    1.2763    0.1594 C   0  0  0  0  0  0  0  0  0  0  0  0
   -7.1194    2.7191    0.0075 C   0  0  0  0  0  0  0  0  0  0  0  0
    5.7525    1.9398   -0.0288 H   0  0  0  0  0  0  0  0  0  0  0  0
    3.4012    2.8602   -0.8141 H   0  0  0  0  0  0  0  0  0  0  0  0
    3.4561   -1.4016   -1.4737 H   0  0  0  0  0  0  0  0  0  0  0  0
    5.5684    0.1382   -1.9702 H   0  0  0  0  0  0  0  0  0  0  0  0
    5.8024   -0.6979   -0.4068 H   0  0  0  0  0  0  0  0  0  0  0  0
    1.9405    0.8197   -1.7082 H   0  0  0  0  0  0  0  0  0  0  0  0
    3.4240    0.9795   -2.6863 H   0  0  0  0  0  0  0  0  0  0  0  0
    2.5619    2.0495    2.1803 H   0  0  0  0  0  0  0  0  0  0  0  0
    4.1197    1.4027    2.7235 H   0  0  0  0  0  0  0  0  0  0  0  0
    4.0572    2.9134    1.8097 H   0  0  0  0  0  0  0  0  0  0  0  0
    1.1538    0.4065    0.2098 H   0  0  0  0  0  0  0  0  0  0  0  0
    1.4644   -0.2127    1.7993 H   0  0  0  0  0  0  0  0  0  0  0  0
    3.8527   -2.2859    1.1226 H   0  0  0  0  0  0  0  0  0  0  0  0
    4.9756   -1.0157    1.6097 H   0  0  0  0  0  0  0  0  0  0  0  0
    3.4766   -1.2105    2.4835 H   0  0  0  0  0  0  0  0  0  0  0  0
    1.6398   -2.5460    0.9241 H   0  0  0  0  0  0  0  0  0  0  0  0
    1.4335   -1.9962   -0.7139 H   0  0  0  0  0  0  0  0  0  0  0  0
   -0.5932   -2.1951    1.5368 H   0  0  0  0  0  0  0  0  0  0  0  0
   -3.2316   -2.3438   -0.7223 H   0  0  0  0  0  0  0  0  0  0  0  0
   -2.9200   -2.0184    0.9996 H   0  0  0  0  0  0  0  0  0  0  0  0
   -1.3908   -0.0517   -1.8563 H   0  0  0  0  0  0  0  0  0  0  0  0
    0.1106   -0.9503   -1.9152 H   0  0  0  0  0  0  0  0  0  0  0  0
   -1.3758   -1.7199   -2.4565 H   0  0  0  0  0  0  0  0  0  0  0  0
   -4.6147    1.7637    0.6291 H   0  0  0  0  0  0  0  0  0  0  0  0
   -4.9211    1.4479   -1.1002 H   0  0  0  0  0  0  0  0  0  0  0  0
   -6.9205    0.9224    1.1656 H   0  0  0  0  0  0  0  0  0  0  0  0
   -7.2178    0.6452   -0.5471 H   0  0  0  0  0  0  0  0  0  0  0  0
   -8.1972    2.7977    0.1813 H   0  0  0  0  0  0  0  0  0  0  0  0
   -6.9096    3.0921   -1.0001 H   0  0  0  0  0  0  0  0  0  0  0  0
   -6.6110    3.3682    0.7275 H   0  0  0  0  0  0  0  0  0  0  0  0
  1 16  1  0  0  0  0
  1 18  1  0  0  0  0
  2 18  2  0  0  0  0
  3  4  1  0  0  0  0
  3  5  1  0  0  0  0
  3  6  1  0  0  0  0
  3 10  1  0  0  0  0
  4  5  1  0  0  0  0
  4  8  1  0  0  0  0
  4 22  1  0  0  0  0
  5  9  1  0  0  0  0
  5 23  1  0  0  0  0
  6  7  1  0  0  0  0
  6 11  1  0  0  0  0
  6 12  1  0  0  0  0
  7  8  1  0  0  0  0
  7  9  1  0  0  0  0
  7 24  1  0  0  0  0
  8 25  1  0  0  0  0
  8 26  1  0  0  0  0
  9 27  1  0  0  0  0
  9 28  1  0  0  0  0
 10 29  1  0  0  0  0
 10 30  1  0  0  0  0
 10 31  1  0  0  0  0
 11 13  1  0  0  0  0
 11 32  1  0  0  0  0
 11 33  1  0  0  0  0
 12 34  1  0  0  0  0
 12 35  1  0  0  0  0
 12 36  1  0  0  0  0
 13 14  1  0  0  0  0
 13 37  1  0  0  0  0
 13 38  1  0  0  0  0
 14 15  2  0  0  0  0
 14 39  1  0  0  0  0
 15 16  1  0  0  0  0
 15 17  1  0  0  0  0
 16 40  1  0  0  0  0
 16 41  1  0  0  0  0
 17 42  1  0  0  0  0
 17 43  1  0  0  0  0
 17 44  1  0  0  0  0
 18 19  1  0  0  0  0
 19 20  1  0  0  0  0
 19 45  1  0  0  0  0
 19 46  1  0  0  0  0
 20 21  1  0  0  0  0
 20 47  1  0  0  0  0
 20 48  1  0  0  0  0
 21 49  1  0  0  0  0
 21 50  1  0  0  0  0
 21 51  1  0  0  0  0
M  END
> <PUBCHEM_COMPOUND_CID>
6437243

> <PUBCHEM_CONFORMER_RMSD>
0.8

> <PUBCHEM_CONFORMER_DIVERSEORDER>
5
152
73
237
6
286
232
76
259
126
100
270
148
224
131
249
263
201
3
283
164
150
46
268
38
218
30
158
225
80
75
280
278
245
25
70
119
257
195
125
228
238
35
285
275
8
61
271
216
2
42
274
36
282
254
57
222
10
74
1
220
117
253
190
202
9
91
213
120
67
12
66
196
277
64
188
96
248
34
83
49
21
211
94
90
191
212
219
231
82
180
68
269
72
113
166
208
153
210
203
78
281
250
151
142
267
31
256
95
244
28
163
115
168
81
62
261
20
13
159
266
173
252
200
44
32
172
11
105
118
189
99
156
247
107
234
14
185
169
217
170
165
48
79
221
37
52
160
4
227
47
255
226
24
69
235
89
167
246
174
39
182
136
279
260
92
51
230
193
258
239
146
177
242
43
59
209
243
123
233
86
98
108
184
40
178
132
264
147
101
241
53
197
97
58
65
199
121
171
71
236
161
145
15
111
186
240
45
87
206
187
229
17
16
29
262
112
114
137
134
138
155
106
7
55
179
60
149
144
273
140
54
56
88
207
77
154
129
130
192
198
85
124
183
93
33
215
181
116
223
204
276
194
19
84
26
104
176
141
272
103
251
205
110
18
128
122
27
214
133
284
41
127
22
162
143
23
135
50
175
139
157
109
63
265
102

> <PUBCHEM_MMFF94_PARTIAL_CHARGES>
19
1 -0.43
10 0.09
13 0.14
14 -0.29
15 -0.28
16 0.42
17 0.14
18 0.66
19 0.06
2 -0.57
22 0.1
23 0.1
3 -0.19
39 0.15
4 -0.19
5 -0.19
6 0.09
8 0.09
9 0.09

> <PUBCHEM_EFFECTIVE_ROTOR_COUNT>
8.6

> <PUBCHEM_PHARMACOPHORE_FEATURES>
4
1 17 hydrophobe
1 2 acceptor
1 21 hydrophobe
7 3 4 5 6 7 8 9 rings

> <PUBCHEM_HEAVY_ATOM_COUNT>
21

> <PUBCHEM_ATOM_DEF_STEREO_COUNT>
0

> <PUBCHEM_ATOM_UDEF_STEREO_COUNT>
3

> <PUBCHEM_BOND_DEF_STEREO_COUNT>
1

> <PUBCHEM_BOND_UDEF_STEREO_COUNT>
0

> <PUBCHEM_ISOTOPIC_ATOM_COUNT>
0

> <PUBCHEM_COMPONENT_COUNT>
1

> <PUBCHEM_CACTVS_TAUTO_COUNT>
1

> <PUBCHEM_CONFORMER_ID>
0062397B00000005

> <PUBCHEM_MMFF94_ENERGY>
65.435

> <PUBCHEM_FEATURE_SELFOVERLAP>
20.297

> <PUBCHEM_SHAPE_FINGERPRINT>
10 15 18113627755769956593
10354089 29 17603586365473644174
10378564 45 18060144197836299206
10498660 4 18131634508272268091
10670039 82 17775013332115433113
10674148 151 18114473305923303238
11069576 57 14188753861027870572
11991303 11 16917057898471687495
12107183 9 18116985594618001603
12422481 6 17313100801169311709
12596602 18 17312827061518534049
12623949 98 12829755285799415824
12633257 1 16443618125135515050
12778500 126 18187366480920859726
13167372 99 18335137557938412713
13785724 45 17829600661409705314
13878862 14 18117536463228657261
1420 369 8574715715089967091
14211702 104 9007055790692624485
14251740 57 11169906152466186416
14251764 75 16953119761763796948
14341114 328 17313100873835530483
14347332 77 10159691388238128491
14528608 73 18273209807693246215
14848160 23 8070033246516669695
14848178 5 8214146252917781939
15183329 4 12175627253013882987
15188451 53 8646496184815872743
15210252 30 18188213229566241524
15238133 3 18411691080623491346
17810953 82 18334858290284774317
193927 3 9295289486605733559
20567600 247 9727340326204580205
21033648 29 18339640139394868241
212847 35 18409727370220755554
21623969 137 12251902603098498409
22289505 5 17988928898778191104
22956985 138 7980914685444444750
23559900 14 14333123130874052410
2748736 6 18265043653641351685
2838139 119 18272358738654487569
312425 54 16081093654312159729
3472631 163 18342458170712141797
34797466 226 17489310845191999927
465052 167 7853571322592995667
5104073 3 17676480691865328810
5718773 13 10447664460972542332
59682541 52 15841551821801654965
60123966 16 17131835408498289936
633830 44 18410851109654014590
960060 61 13973688359773274850

> <PUBCHEM_SHAPE_MULTIPOLES>
420.43
16.56
2.41
1.39
29.69
0.65
0.04
11.46
-0.44
1.86
-0.35
-1.9
0.15
-0.12

> <PUBCHEM_SHAPE_SELFOVERLAP>
873.539

> <PUBCHEM_SHAPE_VOLUME>
247.4

> <PUBCHEM_COORDINATE_TYPE>
2
5
10

$$$$
