6438313
  -OEChem-11232109123D

 36 35  0     1  0  0  0  0  0999 V2000
   -5.4137   -0.9420   -0.5971 O   0  0  0  0  0  0  0  0  0  0  0  0
    1.1050    1.6904    0.5291 C   0  0  0  0  0  0  0  0  0  0  0  0
    2.4863    1.2171    0.0635 C   0  0  0  0  0  0  0  0  0  0  0  0
   -0.0089    0.8578   -0.0649 C   0  0  0  0  0  0  0  0  0  0  0  0
   -2.0338   -0.6951    0.1431 C   0  0  0  0  0  0  0  0  0  0  0  0
   -3.4210   -0.2129    0.6011 C   0  0  1  0  0  0  0  0  0  0  0  0
    2.7893   -0.2344    0.4570 C   0  0  0  0  0  0  0  0  0  0  0  0
   -0.9168    0.1724    0.6573 C   0  0  0  0  0  0  0  0  0  0  0  0
   -0.0403    0.8076   -1.5699 C   0  0  0  0  0  0  0  0  0  0  0  0
    4.1553   -0.7277    0.0398 C   0  0  0  0  0  0  0  0  0  0  0  0
   -3.7477    1.1943    0.1048 C   0  0  0  0  0  0  0  0  0  0  0  0
   -4.4596   -1.2141    0.1244 C   0  0  0  0  0  0  0  0  0  0  0  0
    4.4427   -0.7879   -1.4330 C   0  0  0  0  0  0  0  0  0  0  0  0
    5.0632   -1.1254    0.9449 C   0  0  0  0  0  0  0  0  0  0  0  0
    0.9625    2.7381    0.2380 H   0  0  0  0  0  0  0  0  0  0  0  0
    1.0629    1.6627    1.6249 H   0  0  0  0  0  0  0  0  0  0  0  0
    2.5809    1.3459   -1.0211 H   0  0  0  0  0  0  0  0  0  0  0  0
    3.2429    1.8734    0.5129 H   0  0  0  0  0  0  0  0  0  0  0  0
   -1.8637   -1.7072    0.5349 H   0  0  0  0  0  0  0  0  0  0  0  0
   -2.0218   -0.8103   -0.9449 H   0  0  0  0  0  0  0  0  0  0  0  0
   -3.4704   -0.2168    1.6974 H   0  0  0  0  0  0  0  0  0  0  0  0
    2.6692   -0.3331    1.5439 H   0  0  0  0  0  0  0  0  0  0  0  0
    2.0497   -0.9109    0.0117 H   0  0  0  0  0  0  0  0  0  0  0  0
   -0.8439    0.2269    1.7427 H   0  0  0  0  0  0  0  0  0  0  0  0
    0.5780   -0.0146   -1.9432 H   0  0  0  0  0  0  0  0  0  0  0  0
    0.3463    1.7432   -1.9906 H   0  0  0  0  0  0  0  0  0  0  0  0
   -1.0501    0.7068   -1.9764 H   0  0  0  0  0  0  0  0  0  0  0  0
   -3.6839    1.2547   -0.9874 H   0  0  0  0  0  0  0  0  0  0  0  0
   -3.0660    1.9380    0.5290 H   0  0  0  0  0  0  0  0  0  0  0  0
   -4.7655    1.4816    0.3915 H   0  0  0  0  0  0  0  0  0  0  0  0
   -4.3196   -2.2457    0.4929 H   0  0  0  0  0  0  0  0  0  0  0  0
    3.6654   -1.3610   -1.9489 H   0  0  0  0  0  0  0  0  0  0  0  0
    5.4026   -1.2711   -1.6445 H   0  0  0  0  0  0  0  0  0  0  0  0
    4.4785    0.2179   -1.8622 H   0  0  0  0  0  0  0  0  0  0  0  0
    4.8526   -1.0934    2.0087 H   0  0  0  0  0  0  0  0  0  0  0  0
    6.0394   -1.4904    0.6433 H   0  0  0  0  0  0  0  0  0  0  0  0
  1 12  2  0  0  0  0
  2  3  1  0  0  0  0
  2  4  1  0  0  0  0
  2 15  1  0  0  0  0
  2 16  1  0  0  0  0
  3  7  1  0  0  0  0
  3 17  1  0  0  0  0
  3 18  1  0  0  0  0
  4  8  2  0  0  0  0
  4  9  1  0  0  0  0
  5  6  1  0  0  0  0
  5  8  1  0  0  0  0
  5 19  1  0  0  0  0
  5 20  1  0  0  0  0
  6 11  1  0  0  0  0
  6 12  1  0  0  0  0
  6 21  1  0  0  0  0
  7 10  1  0  0  0  0
  7 22  1  0  0  0  0
  7 23  1  0  0  0  0
  8 24  1  0  0  0  0
  9 25  1  0  0  0  0
  9 26  1  0  0  0  0
  9 27  1  0  0  0  0
 10 13  1  0  0  0  0
 10 14  2  0  0  0  0
 11 28  1  0  0  0  0
 11 29  1  0  0  0  0
 11 30  1  0  0  0  0
 12 31  1  0  0  0  0
 13 32  1  0  0  0  0
 13 33  1  0  0  0  0
 13 34  1  0  0  0  0
 14 35  1  0  0  0  0
 14 36  1  0  0  0  0
M  END
> <PUBCHEM_COMPOUND_CID>
6438313

> <PUBCHEM_CONFORMER_RMSD>
0.8

> <PUBCHEM_CONFORMER_DIVERSEORDER>
72
192
144
203
81
108
125
98
148
112
173
74
137
133
3
97
106
95
183
117
47
102
145
116
140
77
188
139
153
27
18
33
60
129
43
166
128
10
193
209
170
175
213
31
104
156
162
146
101
35
118
160
180
84
65
164
5
200
178
51
115
198
109
152
151
48
127
142
168
96
165
15
61
141
45
50
24
119
181
130
91
30
138
28
154
99
79
136
172
55
206
134
59
120
58
186
39
194
64
161
208
78
132
22
121
67
63
197
42
155
205
159
158
49
174
100
85
187
147
23
182
68
207
204
163
191
113
11
76
1
82
135
40
201
44
150
75
37
176
19
92
93
179
38
143
69
189
111
114
87
57
83
211
14
103
184
7
89
199
88
53
20
149
167
126
110
29
124
169
105
71
177
13
21
70
123
26
73
80
2
17
171
8
86
12
34
41
36
107
66
52
4
16
131
90
210
9
94
56
122
202
190
62
25
157
54
46
195
6
32
185
212
196

> <PUBCHEM_MMFF94_PARTIAL_CHARGES>
16
1 -0.57
10 -0.28
12 0.45
13 0.14
14 -0.3
2 0.14
24 0.15
31 0.06
35 0.15
36 0.15
4 -0.28
5 0.14
6 0.06
7 0.14
8 -0.29
9 0.14

> <PUBCHEM_EFFECTIVE_ROTOR_COUNT>
7

> <PUBCHEM_PHARMACOPHORE_FEATURES>
4
1 1 acceptor
1 11 hydrophobe
1 9 hydrophobe
5 2 3 4 7 10 hydrophobe

> <PUBCHEM_HEAVY_ATOM_COUNT>
14

> <PUBCHEM_ATOM_DEF_STEREO_COUNT>
0

> <PUBCHEM_ATOM_UDEF_STEREO_COUNT>
1

> <PUBCHEM_BOND_DEF_STEREO_COUNT>
1

> <PUBCHEM_BOND_UDEF_STEREO_COUNT>
0

> <PUBCHEM_ISOTOPIC_ATOM_COUNT>
0

> <PUBCHEM_COMPONENT_COUNT>
1

> <PUBCHEM_CACTVS_TAUTO_COUNT>
2

> <PUBCHEM_CONFORMER_ID>
00623DA900000048

> <PUBCHEM_MMFF94_ENERGY>
14.0484

> <PUBCHEM_FEATURE_SELFOVERLAP>
20.302

> <PUBCHEM_SHAPE_FINGERPRINT>
100836 57 9943521938470327306
12251169 10 15697990839236471544
124424 183 18272650138942092209
12555020 224 18334849550575583123
12596602 18 16343984714906524634
12892183 10 16343426103228170786
13675066 3 17346596357177387992
13690532 89 18413388756683557699
13760787 5 16877950412247939272
14178000 29 17967534609529116157
14251731 8 18261391100923333716
14251752 14 17023453145280039334
14251764 75 11382392392642012802
14252887 29 17775007860743646854
14366163 111 14056998334451011966
14993402 34 16732701670802376329
17804303 29 18408606963387212681
17834072 33 18343304811929995444
17834072 8 18259697887803422229
17862501 102 18060137661059507331
18186145 218 13767934528591057812
193927 3 18341061782154685667
20281475 54 18187363186548970976
20374829 77 18186515492900832946
204376 136 13110962032753441868
20645477 70 18341333366095708300
20871999 31 16877660136777835364
21354914 88 18272654553756723371
22485316 2 18408322181565083688
23402539 116 18113894927540285261
23402655 69 11458422436042698640
23532345 12 18273221888967031033
23559900 14 18337949116397476273
23590187 173 8142087546330499406
23590187 198 17989210356527579191
2871803 45 17458340815220404986
328317 168 10807929366817906832
3286 77 18411979191150782221
32948 21 17530956960669260429
42 15 18344148107167417801
4325135 7 18334013926470719156
449060 62 9439409029646565344
465052 167 18272096031872672366
474 4 11023826197161798322
5104073 3 18271812349662424481
58999712 45 10375863082749032513
59755656 215 18335700512661879831
76465 3 18130218372008865087
960060 61 17530685420184163166

> <PUBCHEM_SHAPE_MULTIPOLES>
282.24
11.49
1.51
1.12
1.64
0.28
0.38
-6.14
0.28
0.06
-0.07
-0.8
-0.01
-0.14

> <PUBCHEM_SHAPE_SELFOVERLAP>
528.492

> <PUBCHEM_SHAPE_VOLUME>
176.3

> <PUBCHEM_COORDINATE_TYPE>
2
5
10

$$$$
