6438191
  -OEChem-11232108423D

 44 44  0     1  0  0  0  0  0999 V2000
   -3.5875   -1.3332    0.3243 O   0  0  0  0  0  0  0  0  0  0  0  0
   -1.4776   -0.2390    0.0849 C   0  0  2  0  0  0  0  0  0  0  0  0
   -2.0328    1.0840   -0.4771 C   0  0  0  0  0  0  0  0  0  0  0  0
   -0.9777    2.0053   -1.1073 C   0  0  0  0  0  0  0  0  0  0  0  0
   -0.9896   -1.2635   -0.9283 C   0  0  0  0  0  0  0  0  0  0  0  0
   -0.1297    2.7591   -0.1032 C   0  0  0  0  0  0  0  0  0  0  0  0
   -2.5585   -0.9305    0.8649 C   0  0  0  0  0  0  0  0  0  0  0  0
    2.0081    1.3702   -0.3431 C   0  0  0  0  0  0  0  0  0  0  0  0
    0.0599   -2.0902   -0.7316 C   0  0  0  0  0  0  0  0  0  0  0  0
    2.4887    0.4635    0.7956 C   0  0  0  0  0  0  0  0  0  0  0  0
    1.1562    2.4853    0.1914 C   0  0  0  0  0  0  0  0  0  0  0  0
    0.9422   -2.2086    0.4791 C   0  0  0  0  0  0  0  0  0  0  0  0
   -1.7675   -1.3811   -2.2185 C   0  0  0  0  0  0  0  0  0  0  0  0
    3.0801   -0.8229    0.2690 C   0  0  0  0  0  0  0  0  0  0  0  0
   -0.8108    3.9331    0.5556 C   0  0  0  0  0  0  0  0  0  0  0  0
    2.3877   -1.9713    0.1374 C   0  0  0  0  0  0  0  0  0  0  0  0
   -2.3201   -1.1091    2.3398 C   0  0  0  0  0  0  0  0  0  0  0  0
    4.5289   -0.7510   -0.1328 C   0  0  0  0  0  0  0  0  0  0  0  0
   -0.6744    0.0192    0.7805 H   0  0  0  0  0  0  0  0  0  0  0  0
   -2.5611    1.6205    0.3220 H   0  0  0  0  0  0  0  0  0  0  0  0
   -2.8052    0.8786   -1.2296 H   0  0  0  0  0  0  0  0  0  0  0  0
   -1.5002    2.7501   -1.7229 H   0  0  0  0  0  0  0  0  0  0  0  0
   -0.3649    1.4459   -1.8198 H   0  0  0  0  0  0  0  0  0  0  0  0
    1.4751    0.7774   -1.0909 H   0  0  0  0  0  0  0  0  0  0  0  0
    2.8721    1.8095   -0.8567 H   0  0  0  0  0  0  0  0  0  0  0  0
    0.3033   -2.7980   -1.5244 H   0  0  0  0  0  0  0  0  0  0  0  0
    1.6662    0.2565    1.4886 H   0  0  0  0  0  0  0  0  0  0  0  0
    3.2387    0.9894    1.4013 H   0  0  0  0  0  0  0  0  0  0  0  0
    1.6639    3.1269    0.9109 H   0  0  0  0  0  0  0  0  0  0  0  0
    0.8522   -3.2318    0.8660 H   0  0  0  0  0  0  0  0  0  0  0  0
    0.6186   -1.5718    1.3031 H   0  0  0  0  0  0  0  0  0  0  0  0
   -2.8322   -1.5464   -2.0351 H   0  0  0  0  0  0  0  0  0  0  0  0
   -1.4209   -2.2180   -2.8353 H   0  0  0  0  0  0  0  0  0  0  0  0
   -1.6529   -0.4746   -2.8207 H   0  0  0  0  0  0  0  0  0  0  0  0
   -1.6615    3.5988    1.1569 H   0  0  0  0  0  0  0  0  0  0  0  0
   -1.1735    4.6360   -0.2016 H   0  0  0  0  0  0  0  0  0  0  0  0
   -0.1382    4.4865    1.2199 H   0  0  0  0  0  0  0  0  0  0  0  0
    2.9046   -2.8394   -0.2703 H   0  0  0  0  0  0  0  0  0  0  0  0
   -1.4887   -1.7985    2.5008 H   0  0  0  0  0  0  0  0  0  0  0  0
   -2.1053   -0.1408    2.7990 H   0  0  0  0  0  0  0  0  0  0  0  0
   -3.2175   -1.5237    2.8076 H   0  0  0  0  0  0  0  0  0  0  0  0
    4.9040   -1.7082   -0.5100 H   0  0  0  0  0  0  0  0  0  0  0  0
    5.1468   -0.4694    0.7262 H   0  0  0  0  0  0  0  0  0  0  0  0
    4.6704   -0.0063   -0.9226 H   0  0  0  0  0  0  0  0  0  0  0  0
  1  7  2  0  0  0  0
  2  3  1  0  0  0  0
  2  5  1  0  0  0  0
  2  7  1  0  0  0  0
  2 19  1  0  0  0  0
  3  4  1  0  0  0  0
  3 20  1  0  0  0  0
  3 21  1  0  0  0  0
  4  6  1  0  0  0  0
  4 22  1  0  0  0  0
  4 23  1  0  0  0  0
  5  9  2  0  0  0  0
  5 13  1  0  0  0  0
  6 11  2  0  0  0  0
  6 15  1  0  0  0  0
  7 17  1  0  0  0  0
  8 10  1  0  0  0  0
  8 11  1  0  0  0  0
  8 24  1  0  0  0  0
  8 25  1  0  0  0  0
  9 12  1  0  0  0  0
  9 26  1  0  0  0  0
 10 14  1  0  0  0  0
 10 27  1  0  0  0  0
 10 28  1  0  0  0  0
 11 29  1  0  0  0  0
 12 16  1  0  0  0  0
 12 30  1  0  0  0  0
 12 31  1  0  0  0  0
 13 32  1  0  0  0  0
 13 33  1  0  0  0  0
 13 34  1  0  0  0  0
 14 16  2  0  0  0  0
 14 18  1  0  0  0  0
 15 35  1  0  0  0  0
 15 36  1  0  0  0  0
 15 37  1  0  0  0  0
 16 38  1  0  0  0  0
 17 39  1  0  0  0  0
 17 40  1  0  0  0  0
 17 41  1  0  0  0  0
 18 42  1  0  0  0  0
 18 43  1  0  0  0  0
 18 44  1  0  0  0  0
M  END
> <PUBCHEM_COMPOUND_CID>
6438191

> <PUBCHEM_CONFORMER_RMSD>
0.6

> <PUBCHEM_CONFORMER_DIVERSEORDER>
1
4
3
2

> <PUBCHEM_MMFF94_PARTIAL_CHARGES>
20
1 -0.57
10 0.14
11 -0.29
12 0.28
13 0.14
14 -0.28
15 0.14
16 -0.29
17 0.06
18 0.14
2 0.2
26 0.15
29 0.15
38 0.15
4 0.14
5 -0.28
6 -0.28
7 0.45
8 0.14
9 -0.29

> <PUBCHEM_EFFECTIVE_ROTOR_COUNT>
2.2

> <PUBCHEM_PHARMACOPHORE_FEATURES>
1
1 1 acceptor

> <PUBCHEM_HEAVY_ATOM_COUNT>
18

> <PUBCHEM_ATOM_DEF_STEREO_COUNT>
0

> <PUBCHEM_ATOM_UDEF_STEREO_COUNT>
1

> <PUBCHEM_BOND_DEF_STEREO_COUNT>
3

> <PUBCHEM_BOND_UDEF_STEREO_COUNT>
0

> <PUBCHEM_ISOTOPIC_ATOM_COUNT>
0

> <PUBCHEM_COMPONENT_COUNT>
1

> <PUBCHEM_CACTVS_TAUTO_COUNT>
8

> <PUBCHEM_CONFORMER_ID>
00623D2F00000001

> <PUBCHEM_MMFF94_ENERGY>
24.8601

> <PUBCHEM_FEATURE_SELFOVERLAP>
5.074

> <PUBCHEM_SHAPE_FINGERPRINT>
104564 63 18339925888180432132
11221954 11 17549262536465378092
11578080 2 17415525892406269937
12553582 1 18267860769439267316
12596599 1 17703792569621274886
12633257 1 18114474438808680763
13140716 1 18410567379698004672
14251711 518 18267004107936286438
16945 1 17907005528026317620
18219364 16 17756413125572537070
20600515 1 17386875883508843499
20645476 183 17463699680022115860
21041028 32 18410019835786661440
21524375 3 17330257378081000541
2334 1 18266166400271740900
23419403 2 17823969229498216199
2748010 2 18337936970277461692
31174 14 18046070629352462987
539174 4 17983312687519123905
6443956 14 18336550512137659041
6992083 37 18060142084570088022
81228 2 18191566580716033792

> <PUBCHEM_SHAPE_MULTIPOLES>
364.56
5.2
3.87
1.49
4.22
3.76
0.07
-2.36
0.86
-0.93
0.11
-1.35
-0.77
0.21

> <PUBCHEM_SHAPE_SELFOVERLAP>
716.817

> <PUBCHEM_SHAPE_VOLUME>
217.5

> <PUBCHEM_COORDINATE_TYPE>
2
5
10

$$$$
