6438069
  -OEChem-11232109233D

 32 32  0     1  0  0  0  0  0999 V2000
   -1.1598    1.1048   -1.2214 O   0  0  0  0  0  0  0  0  0  0  0  0
   -1.6325   -0.6178    0.4307 C   0  0  1  0  0  0  0  0  0  0  0  0
   -1.4090    0.8706    0.1593 C   0  0  2  0  0  0  0  0  0  0  0  0
   -3.0476   -0.8578   -0.0998 C   0  0  0  0  0  0  0  0  0  0  0  0
   -2.7462    1.4876    0.5536 C   0  0  0  0  0  0  0  0  0  0  0  0
   -3.7985    0.4518    0.1484 C   0  0  0  0  0  0  0  0  0  0  0  0
   -0.6036   -1.5407   -0.2035 C   0  0  0  0  0  0  0  0  0  0  0  0
    0.7728   -1.2744    0.3300 C   0  0  0  0  0  0  0  0  0  0  0  0
    1.8056   -0.8859   -0.4321 C   0  0  0  0  0  0  0  0  0  0  0  0
    3.1856   -0.6304    0.1000 C   0  0  0  0  0  0  0  0  0  0  0  0
    3.6125    0.8179   -0.1395 C   0  0  0  0  0  0  0  0  0  0  0  0
    5.0208    1.0744    0.3742 C   0  0  0  0  0  0  0  0  0  0  0  0
   -1.6453   -0.7765    1.5189 H   0  0  0  0  0  0  0  0  0  0  0  0
   -0.5794    1.2865    0.7393 H   0  0  0  0  0  0  0  0  0  0  0  0
   -3.5310   -1.7033    0.4005 H   0  0  0  0  0  0  0  0  0  0  0  0
   -3.0372   -1.0751   -1.1748 H   0  0  0  0  0  0  0  0  0  0  0  0
   -2.9336    2.4505    0.0685 H   0  0  0  0  0  0  0  0  0  0  0  0
   -2.7850    1.6339    1.6395 H   0  0  0  0  0  0  0  0  0  0  0  0
   -4.3254    0.7633   -0.7603 H   0  0  0  0  0  0  0  0  0  0  0  0
   -4.5489    0.3375    0.9380 H   0  0  0  0  0  0  0  0  0  0  0  0
   -0.8625   -2.5825    0.0227 H   0  0  0  0  0  0  0  0  0  0  0  0
   -0.6219   -1.4531   -1.2969 H   0  0  0  0  0  0  0  0  0  0  0  0
    0.9214   -1.4196    1.3973 H   0  0  0  0  0  0  0  0  0  0  0  0
   -1.0816    2.0662   -1.3443 H   0  0  0  0  0  0  0  0  0  0  0  0
    1.6595   -0.7502   -1.5009 H   0  0  0  0  0  0  0  0  0  0  0  0
    3.8822   -1.3108   -0.4044 H   0  0  0  0  0  0  0  0  0  0  0  0
    3.2388   -0.8581    1.1717 H   0  0  0  0  0  0  0  0  0  0  0  0
    2.9170    1.5018    0.3621 H   0  0  0  0  0  0  0  0  0  0  0  0
    3.5752    1.0502   -1.2108 H   0  0  0  0  0  0  0  0  0  0  0  0
    5.7465    0.4300   -0.1321 H   0  0  0  0  0  0  0  0  0  0  0  0
    5.0860    0.8868    1.4507 H   0  0  0  0  0  0  0  0  0  0  0  0
    5.3064    2.1154    0.1931 H   0  0  0  0  0  0  0  0  0  0  0  0
  1  3  1  0  0  0  0
  1 24  1  0  0  0  0
  2  3  1  0  0  0  0
  2  4  1  0  0  0  0
  2  7  1  0  0  0  0
  2 13  1  0  0  0  0
  3  5  1  0  0  0  0
  3 14  1  0  0  0  0
  4  6  1  0  0  0  0
  4 15  1  0  0  0  0
  4 16  1  0  0  0  0
  5  6  1  0  0  0  0
  5 17  1  0  0  0  0
  5 18  1  0  0  0  0
  6 19  1  0  0  0  0
  6 20  1  0  0  0  0
  7  8  1  0  0  0  0
  7 21  1  0  0  0  0
  7 22  1  0  0  0  0
  8  9  2  0  0  0  0
  8 23  1  0  0  0  0
  9 10  1  0  0  0  0
  9 25  1  0  0  0  0
 10 11  1  0  0  0  0
 10 26  1  0  0  0  0
 10 27  1  0  0  0  0
 11 12  1  0  0  0  0
 11 28  1  0  0  0  0
 11 29  1  0  0  0  0
 12 30  1  0  0  0  0
 12 31  1  0  0  0  0
 12 32  1  0  0  0  0
M  END
> <PUBCHEM_COMPOUND_CID>
6438069

> <PUBCHEM_CONFORMER_RMSD>
0.6

> <PUBCHEM_CONFORMER_DIVERSEORDER>
9
147
111
198
15
167
81
162
217
93
150
225
197
84
130
7
213
85
193
151
46
202
96
123
168
14
107
196
170
87
3
219
22
36
143
2
127
73
212
79
94
199
43
205
149
65
221
27
115
186
6
142
195
54
40
128
116
61
191
185
63
165
44
178
1
114
203
39
24
32
23
192
67
222
190
28
41
209
4
177
110
78
204
148
57
122
53
164
37
10
218
42
97
16
131
183
5
69
59
108
98
163
200
139
211
34
132
141
121
189
75
214
179
51
220
100
146
174
30
216
113
68
20
144
89
224
187
181
136
176
60
188
88
29
76
201
91
17
64
171
12
161
140
35
26
207
92
215
8
48
50
210
106
160
109
19
156
31
173
129
154
52
72
223
117
120
11
157
47
175
138
25
21
125
172
55
166
105
206
152
45
155
169
158
33
184
208
70
18
58
119
194
180
101
133
134
80
182
62
137
104
159
49
83
77
86
13
112
126
145
82
153
74
99
103
56
38
66
124
102
135
71
95
118
90

> <PUBCHEM_MMFF94_PARTIAL_CHARGES>
9
1 -0.68
10 0.14
23 0.15
24 0.4
25 0.15
3 0.28
7 0.14
8 -0.29
9 -0.29

> <PUBCHEM_EFFECTIVE_ROTOR_COUNT>
5

> <PUBCHEM_PHARMACOPHORE_FEATURES>
4
1 1 acceptor
1 1 donor
1 12 hydrophobe
5 2 3 4 5 6 rings

> <PUBCHEM_HEAVY_ATOM_COUNT>
12

> <PUBCHEM_ATOM_DEF_STEREO_COUNT>
0

> <PUBCHEM_ATOM_UDEF_STEREO_COUNT>
2

> <PUBCHEM_BOND_DEF_STEREO_COUNT>
1

> <PUBCHEM_BOND_UDEF_STEREO_COUNT>
0

> <PUBCHEM_ISOTOPIC_ATOM_COUNT>
0

> <PUBCHEM_COMPONENT_COUNT>
1

> <PUBCHEM_CACTVS_TAUTO_COUNT>
1

> <PUBCHEM_CONFORMER_ID>
00623CB500000009

> <PUBCHEM_MMFF94_ENERGY>
11.8326

> <PUBCHEM_FEATURE_SELFOVERLAP>
20.297

> <PUBCHEM_SHAPE_FINGERPRINT>
11031198 65 17203610350447895542
11132069 177 18260834795104802495
122479 349 18409172129712485938
12346645 44 18411702054027581275
124424 183 13045938027620643743
13214271 11 18334858346346410287
13897977 58 18336831986871458292
14325111 11 18412266094981823402
15775835 57 18408605851074858250
170605 34 18410577249680452818
177051 138 8214141850497273234
17802600 8 18336259132908361036
17846911 113 18407758140331318392
18186145 218 18340773624472437582
20281407 28 7997966882224173094
20300324 65 18131067172967424079
20528008 55 18407758131646392839
20645476 183 15267337427124233268
20645477 56 18272090539242249842
21119208 17 14476963393713310752
21524375 3 18409165524158578490
22959321 54 18342459223021379088
23402539 116 18338226180305688790
23403322 49 8862951571646601688
23557571 272 18128266764402386014
7364860 26 18194402186955216346

> <PUBCHEM_SHAPE_MULTIPOLES>
241.09
8.25
1.65
0.79
7.96
0
0.09
-3.44
-0.8
-0.14
-0.03
-0.1
-0.1
0.02

> <PUBCHEM_SHAPE_SELFOVERLAP>
464.09

> <PUBCHEM_SHAPE_VOLUME>
148.7

> <PUBCHEM_COORDINATE_TYPE>
2
5
10

$$$$
