6438193
  -OEChem-11232109053D

 25 24  0     0  0  0  0  0  0999 V2000
   -3.5668    1.8804   -0.0459 N   0  0  0  0  0  0  0  0  0  0  0  0
    1.4434   -0.0819   -0.5209 C   0  0  0  0  0  0  0  0  0  0  0  0
    2.7163   -0.1640    0.3233 C   0  0  0  0  0  0  0  0  0  0  0  0
    0.2678   -0.7697    0.1762 C   0  0  0  0  0  0  0  0  0  0  0  0
    3.8826    0.5515   -0.3579 C   0  0  0  0  0  0  0  0  0  0  0  0
   -1.0126   -0.6579   -0.6541 C   0  0  0  0  0  0  0  0  0  0  0  0
    5.1580    0.4434    0.4627 C   0  0  0  0  0  0  0  0  0  0  0  0
   -2.1736   -1.3044    0.0455 C   0  0  0  0  0  0  0  0  0  0  0  0
   -3.2798   -0.6431    0.4120 C   0  0  0  0  0  0  0  0  0  0  0  0
   -3.4354    0.7458    0.1590 C   0  0  0  0  0  0  0  0  0  0  0  0
    1.6174   -0.5499   -1.4975 H   0  0  0  0  0  0  0  0  0  0  0  0
    1.1956    0.9705   -0.7059 H   0  0  0  0  0  0  0  0  0  0  0  0
    2.5362    0.2853    1.3075 H   0  0  0  0  0  0  0  0  0  0  0  0
    2.9766   -1.2162    0.4914 H   0  0  0  0  0  0  0  0  0  0  0  0
    0.5100   -1.8259    0.3496 H   0  0  0  0  0  0  0  0  0  0  0  0
    0.1098   -0.3106    1.1605 H   0  0  0  0  0  0  0  0  0  0  0  0
    4.0570    0.1186   -1.3498 H   0  0  0  0  0  0  0  0  0  0  0  0
    3.6363    1.6096   -0.5041 H   0  0  0  0  0  0  0  0  0  0  0  0
   -0.8669   -1.1746   -1.6112 H   0  0  0  0  0  0  0  0  0  0  0  0
   -1.1905    0.3929   -0.9031 H   0  0  0  0  0  0  0  0  0  0  0  0
    5.0276    0.8948    1.4514 H   0  0  0  0  0  0  0  0  0  0  0  0
    5.4502   -0.6029    0.5981 H   0  0  0  0  0  0  0  0  0  0  0  0
    5.9787    0.9625   -0.0422 H   0  0  0  0  0  0  0  0  0  0  0  0
   -2.1054   -2.3687    0.2553 H   0  0  0  0  0  0  0  0  0  0  0  0
   -4.0846   -1.1709    0.9124 H   0  0  0  0  0  0  0  0  0  0  0  0
  1 10  3  0  0  0  0
  2  3  1  0  0  0  0
  2  4  1  0  0  0  0
  2 11  1  0  0  0  0
  2 12  1  0  0  0  0
  3  5  1  0  0  0  0
  3 13  1  0  0  0  0
  3 14  1  0  0  0  0
  4  6  1  0  0  0  0
  4 15  1  0  0  0  0
  4 16  1  0  0  0  0
  5  7  1  0  0  0  0
  5 17  1  0  0  0  0
  5 18  1  0  0  0  0
  6  8  1  0  0  0  0
  6 19  1  0  0  0  0
  6 20  1  0  0  0  0
  7 21  1  0  0  0  0
  7 22  1  0  0  0  0
  7 23  1  0  0  0  0
  8  9  2  0  0  0  0
  8 24  1  0  0  0  0
  9 10  1  0  0  0  0
  9 25  1  0  0  0  0
M  END
> <PUBCHEM_COMPOUND_CID>
6438193

> <PUBCHEM_CONFORMER_RMSD>
0.6

> <PUBCHEM_CONFORMER_DIVERSEORDER>
1
79
109
32
121
115
16
18
4
118
82
104
5
122
11
31
88
9
119
29
55
85
72
94
116
37
51
93
92
17
108
81
21
78
10
107
102
110
20
23
40
89
111
57
75
52
13
113
117
8
86
76
28
112
41
103
7
26
105
56
15
43
59
6
90
106
39
77
84
58
99
98
67
91
2
53
3
66
36
80
64
46
61
69
96
12
63
62
60
87
74
25
95
68
73
71
24
100
44
35
34
33
54
114
48
65
97
101
50
47
14
83
120
45
30
27
19
22
49
42
38
70

> <PUBCHEM_MMFF94_PARTIAL_CHARGES>
7
1 -0.56
10 0.49
24 0.15
25 0.15
6 0.14
8 -0.29
9 -0.09

> <PUBCHEM_EFFECTIVE_ROTOR_COUNT>
5

> <PUBCHEM_PHARMACOPHORE_FEATURES>
4
1 1 acceptor
1 7 hydrophobe
3 2 3 5 hydrophobe
3 4 6 8 hydrophobe

> <PUBCHEM_HEAVY_ATOM_COUNT>
10

> <PUBCHEM_ATOM_DEF_STEREO_COUNT>
0

> <PUBCHEM_ATOM_UDEF_STEREO_COUNT>
0

> <PUBCHEM_BOND_DEF_STEREO_COUNT>
1

> <PUBCHEM_BOND_UDEF_STEREO_COUNT>
0

> <PUBCHEM_ISOTOPIC_ATOM_COUNT>
0

> <PUBCHEM_COMPONENT_COUNT>
1

> <PUBCHEM_CACTVS_TAUTO_COUNT>
1

> <PUBCHEM_CONFORMER_ID>
00623D3100000001

> <PUBCHEM_MMFF94_ENERGY>
0.1984

> <PUBCHEM_FEATURE_SELFOVERLAP>
20.31

> <PUBCHEM_SHAPE_FINGERPRINT>
11062470 55 17703794751559677710
11987891 38 8142098563074750416
12346645 44 18333448733473763499
14123255 352 18413105061140501428
14251710 61 8790591620242506997
14252887 29 15213293115526379496
14455015 7 14129049280438787104
15501527 16 18343588429894972497
177051 138 8358252640178425762
17834072 32 18265333902677247717
18342897 14 18334574655361604232
20432913 95 15140674782963308752
20645477 56 18272656753122870283
20645477 70 16486707896034690102
20767249 213 18407758140727022309
21061003 4 13984665866985886239
21119208 17 12247682656101505755
23380061 127 18337389439219664183
23402539 116 18343576365152223686
23402655 69 13254530729238021122
53428517 29 18335137596514042540
6430166 295 18412543206561684260

> <PUBCHEM_SHAPE_MULTIPOLES>
200.81
9.74
1.31
0.75
7.85
0.4
-0.02
3.43
1.38
-1.64
0
0.14
-0.04
0.04

> <PUBCHEM_SHAPE_SELFOVERLAP>
364.387

> <PUBCHEM_SHAPE_VOLUME>
126.3

> <PUBCHEM_COORDINATE_TYPE>
2
5
10

$$$$
