6438319
  -OEChem-11232109203D

 28 28  0     1  0  0  0  0  0999 V2000
    1.1660   -0.7048   -0.0429 O   0  0  0  0  0  0  0  0  0  0  0  0
    2.8848   -2.1590    0.0197 O   0  0  0  0  0  0  0  0  0  0  0  0
    0.6509    0.6040    0.2920 C   0  0  1  0  0  0  0  0  0  0  0  0
    1.5472    1.7270   -0.2047 C   0  0  0  0  0  0  0  0  0  0  0  0
    2.9498    1.4802    0.3116 C   0  0  0  0  0  0  0  0  0  0  0  0
   -0.7480    0.7105   -0.3003 C   0  0  0  0  0  0  0  0  0  0  0  0
    3.4511    0.1489   -0.2076 C   0  0  0  0  0  0  0  0  0  0  0  0
   -1.6631   -0.3921    0.2310 C   0  0  0  0  0  0  0  0  0  0  0  0
    2.4884   -0.9964   -0.0255 C   0  0  0  0  0  0  0  0  0  0  0  0
   -3.0474   -0.2686   -0.3363 C   0  0  0  0  0  0  0  0  0  0  0  0
   -4.1511   -0.1333    0.4129 C   0  0  0  0  0  0  0  0  0  0  0  0
   -5.5288   -0.0165   -0.1500 C   0  0  0  0  0  0  0  0  0  0  0  0
    0.5805    0.6448    1.3865 H   0  0  0  0  0  0  0  0  0  0  0  0
    1.1781    2.6980    0.1432 H   0  0  0  0  0  0  0  0  0  0  0  0
    1.5636    1.7504   -1.3014 H   0  0  0  0  0  0  0  0  0  0  0  0
    2.9487    1.4783    1.4085 H   0  0  0  0  0  0  0  0  0  0  0  0
    3.6205    2.2843   -0.0104 H   0  0  0  0  0  0  0  0  0  0  0  0
   -0.6919    0.6274   -1.3938 H   0  0  0  0  0  0  0  0  0  0  0  0
   -1.1752    1.6945   -0.0691 H   0  0  0  0  0  0  0  0  0  0  0  0
    4.3854   -0.1026    0.3067 H   0  0  0  0  0  0  0  0  0  0  0  0
    3.6656    0.2224   -1.2802 H   0  0  0  0  0  0  0  0  0  0  0  0
   -1.6885   -0.3561    1.3270 H   0  0  0  0  0  0  0  0  0  0  0  0
   -1.2748   -1.3788   -0.0472 H   0  0  0  0  0  0  0  0  0  0  0  0
   -3.1392   -0.3085   -1.4191 H   0  0  0  0  0  0  0  0  0  0  0  0
   -4.0646   -0.1012    1.4958 H   0  0  0  0  0  0  0  0  0  0  0  0
   -6.1541   -0.8332    0.2232 H   0  0  0  0  0  0  0  0  0  0  0  0
   -5.9789    0.9312    0.1609 H   0  0  0  0  0  0  0  0  0  0  0  0
   -5.5351   -0.0544   -1.2439 H   0  0  0  0  0  0  0  0  0  0  0  0
  1  3  1  0  0  0  0
  1  9  1  0  0  0  0
  2  9  2  0  0  0  0
  3  4  1  0  0  0  0
  3  6  1  0  0  0  0
  3 13  1  0  0  0  0
  4  5  1  0  0  0  0
  4 14  1  0  0  0  0
  4 15  1  0  0  0  0
  5  7  1  0  0  0  0
  5 16  1  0  0  0  0
  5 17  1  0  0  0  0
  6  8  1  0  0  0  0
  6 18  1  0  0  0  0
  6 19  1  0  0  0  0
  7  9  1  0  0  0  0
  7 20  1  0  0  0  0
  7 21  1  0  0  0  0
  8 10  1  0  0  0  0
  8 22  1  0  0  0  0
  8 23  1  0  0  0  0
 10 11  2  0  0  0  0
 10 24  1  0  0  0  0
 11 12  1  0  0  0  0
 11 25  1  0  0  0  0
 12 26  1  0  0  0  0
 12 27  1  0  0  0  0
 12 28  1  0  0  0  0
M  END
> <PUBCHEM_COMPOUND_CID>
6438319

> <PUBCHEM_CONFORMER_RMSD>
0.6

> <PUBCHEM_CONFORMER_DIVERSEORDER>
1
31
20
35
22
45
46
43
7
4
41
12
9
33
42
39
44
30
32
29
17
47
2
40
5
26
38
21
16
13
27
18
15
36
23
10
34
6
25
37
14
19
3
24
8
28
11

> <PUBCHEM_MMFF94_PARTIAL_CHARGES>
11
1 -0.43
10 -0.29
11 -0.29
12 0.14
2 -0.57
24 0.15
25 0.15
3 0.28
7 0.06
8 0.14
9 0.66

> <PUBCHEM_EFFECTIVE_ROTOR_COUNT>
4

> <PUBCHEM_PHARMACOPHORE_FEATURES>
3
1 12 hydrophobe
1 2 acceptor
6 1 3 4 5 7 9 rings

> <PUBCHEM_HEAVY_ATOM_COUNT>
12

> <PUBCHEM_ATOM_DEF_STEREO_COUNT>
0

> <PUBCHEM_ATOM_UDEF_STEREO_COUNT>
1

> <PUBCHEM_BOND_DEF_STEREO_COUNT>
1

> <PUBCHEM_BOND_UDEF_STEREO_COUNT>
0

> <PUBCHEM_ISOTOPIC_ATOM_COUNT>
0

> <PUBCHEM_COMPONENT_COUNT>
1

> <PUBCHEM_CACTVS_TAUTO_COUNT>
1

> <PUBCHEM_CONFORMER_ID>
00623DAF00000001

> <PUBCHEM_MMFF94_ENERGY>
11.6232

> <PUBCHEM_FEATURE_SELFOVERLAP>
15.223

> <PUBCHEM_SHAPE_FINGERPRINT>
11062470 55 18201721777678936361
11471102 20 18410574006679191076
12346645 6 18343022211402509758
12616999 72 18041289832683319894
12932764 1 17632566176145832089
13167823 11 18201998876400769695
14251717 144 18411699885153531635
14252887 29 18187087269138778113
15442244 35 18269278950049087273
15477762 27 18409731746644580974
17834072 33 18271522100399739223
17834074 16 18334580191564159387
18186145 218 17821723927795436873
20201158 50 18334577953606350442
20279233 1 18040438814878181275
20645477 70 18411417289496493927
20871998 22 18127694829630465582
22485316 2 18411697708084991631
23048698 100 18059861679277318705
23402655 69 18412825798219511461
23557571 272 17167855344482361860
33824 294 18408321098922400586
42 15 18409732859373413457
449060 50 18262238936358302509
449060 62 18341053012005501420
522135 26 18410856559929907469
581208 293 18410852209064856504
77779 3 18410576197782308097

> <PUBCHEM_SHAPE_MULTIPOLES>
235.22
9.08
1.55
0.66
12.42
0.25
0
0.72
-0.03
-2.09
0
0.09
-0.04
0.09

> <PUBCHEM_SHAPE_SELFOVERLAP>
456.716

> <PUBCHEM_SHAPE_VOLUME>
142

> <PUBCHEM_COORDINATE_TYPE>
2
5
10

$$$$
