6439529
  -OEChem-11232108543D

 68 67  0     0  0  0  0  0  0999 V2000
    3.3664    2.6261   -1.2865 O   0  0  0  0  0  0  0  0  0  0  0  0
   -4.9400   -1.3112    0.8831 C   0  0  0  0  0  0  0  0  0  0  0  0
   -0.2402   -1.8084    0.2683 C   0  0  0  0  0  0  0  0  0  0  0  0
   -1.2749   -2.8070    0.7902 C   0  0  0  0  0  0  0  0  0  0  0  0
   -5.3287   -0.0472    0.1047 C   0  0  0  0  0  0  0  0  0  0  0  0
   -3.6537   -1.9572    0.4102 C   0  0  0  0  0  0  0  0  0  0  0  0
    1.0771   -2.4854   -0.0388 C   0  0  0  0  0  0  0  0  0  0  0  0
   -2.5583   -2.1283    1.1762 C   0  0  0  0  0  0  0  0  0  0  0  0
   -3.6579    1.6713   -0.8160 C   0  0  0  0  0  0  0  0  0  0  0  0
   -2.6054    2.7168   -0.4986 C   0  0  0  0  0  0  0  0  0  0  0  0
   -4.2761    1.0220    0.1894 C   0  0  0  0  0  0  0  0  0  0  0  0
    3.5857   -2.8378    0.3361 C   0  0  0  0  0  0  0  0  0  0  0  0
    2.2395   -2.2161    0.5874 C   0  0  0  0  0  0  0  0  0  0  0  0
    4.4428   -2.0563   -0.6695 C   0  0  0  0  0  0  0  0  0  0  0  0
   -1.2093    2.1058   -0.3462 C   0  0  0  0  0  0  0  0  0  0  0  0
   -3.6743   -2.4755   -1.0044 C   0  0  0  0  0  0  0  0  0  0  0  0
    1.0259   -3.5180   -1.1341 C   0  0  0  0  0  0  0  0  0  0  0  0
    4.6800   -0.6060   -0.3086 C   0  0  0  0  0  0  0  0  0  0  0  0
   -3.9262    1.4497   -2.2786 C   0  0  0  0  0  0  0  0  0  0  0  0
   -0.1913    3.1512    0.0129 C   0  0  0  0  0  0  0  0  0  0  0  0
    5.5108   -0.3701    0.9252 C   0  0  0  0  0  0  0  0  0  0  0  0
    0.6307    3.1601    1.0795 C   0  0  0  0  0  0  0  0  0  0  0  0
    4.2369    0.4362   -1.0384 C   0  0  0  0  0  0  0  0  0  0  0  0
    4.4705    1.8903   -0.7768 C   0  0  0  0  0  0  0  0  0  0  0  0
    0.6722    2.1004    2.1441 C   0  0  0  0  0  0  0  0  0  0  0  0
    1.5977    4.2945    1.2891 C   0  0  0  0  0  0  0  0  0  0  0  0
   -5.7527   -2.0440    0.8022 H   0  0  0  0  0  0  0  0  0  0  0  0
   -4.8625   -1.0649    1.9505 H   0  0  0  0  0  0  0  0  0  0  0  0
   -0.6089   -1.3130   -0.6388 H   0  0  0  0  0  0  0  0  0  0  0  0
   -0.0880   -1.0159    1.0120 H   0  0  0  0  0  0  0  0  0  0  0  0
   -1.4502   -3.6212    0.0808 H   0  0  0  0  0  0  0  0  0  0  0  0
   -0.8819   -3.3011    1.6894 H   0  0  0  0  0  0  0  0  0  0  0  0
   -5.5848   -0.3109   -0.9238 H   0  0  0  0  0  0  0  0  0  0  0  0
   -6.2491    0.3558    0.5459 H   0  0  0  0  0  0  0  0  0  0  0  0
   -2.5841   -1.7409    2.1935 H   0  0  0  0  0  0  0  0  0  0  0  0
   -2.8778    3.2394    0.4289 H   0  0  0  0  0  0  0  0  0  0  0  0
   -2.6047    3.4888   -1.2791 H   0  0  0  0  0  0  0  0  0  0  0  0
   -3.9970    1.2911    1.2083 H   0  0  0  0  0  0  0  0  0  0  0  0
    3.4844   -3.8752   -0.0021 H   0  0  0  0  0  0  0  0  0  0  0  0
    4.1113   -2.9049    1.2973 H   0  0  0  0  0  0  0  0  0  0  0  0
    2.2265   -1.4546    1.3663 H   0  0  0  0  0  0  0  0  0  0  0  0
    3.9705   -2.1180   -1.6588 H   0  0  0  0  0  0  0  0  0  0  0  0
    5.4137   -2.5571   -0.7738 H   0  0  0  0  0  0  0  0  0  0  0  0
   -0.9043    1.6542   -1.2988 H   0  0  0  0  0  0  0  0  0  0  0  0
   -1.2446    1.2883    0.3774 H   0  0  0  0  0  0  0  0  0  0  0  0
   -2.7391   -2.9207   -1.3478 H   0  0  0  0  0  0  0  0  0  0  0  0
   -3.8926   -1.6656   -1.7067 H   0  0  0  0  0  0  0  0  0  0  0  0
   -4.4557   -3.2359   -1.1094 H   0  0  0  0  0  0  0  0  0  0  0  0
    0.6393   -4.4667   -0.7486 H   0  0  0  0  0  0  0  0  0  0  0  0
    1.9954   -3.7093   -1.6012 H   0  0  0  0  0  0  0  0  0  0  0  0
    0.3652   -3.1807   -1.9408 H   0  0  0  0  0  0  0  0  0  0  0  0
   -4.7107    0.7188   -2.4799 H   0  0  0  0  0  0  0  0  0  0  0  0
   -3.0163    1.0995   -2.7771 H   0  0  0  0  0  0  0  0  0  0  0  0
   -4.2353    2.3893   -2.7488 H   0  0  0  0  0  0  0  0  0  0  0  0
   -0.1207    3.9760   -0.6952 H   0  0  0  0  0  0  0  0  0  0  0  0
    6.3432   -1.0820    0.9595 H   0  0  0  0  0  0  0  0  0  0  0  0
    5.9629    0.6239    0.9701 H   0  0  0  0  0  0  0  0  0  0  0  0
    4.9036   -0.5130    1.8246 H   0  0  0  0  0  0  0  0  0  0  0  0
    3.6752    0.2097   -1.9439 H   0  0  0  0  0  0  0  0  0  0  0  0
    5.3721    2.2246   -1.2984 H   0  0  0  0  0  0  0  0  0  0  0  0
    4.5507    2.1188    0.2888 H   0  0  0  0  0  0  0  0  0  0  0  0
    0.5579    2.5594    3.1323 H   0  0  0  0  0  0  0  0  0  0  0  0
    1.6373    1.5831    2.1173 H   0  0  0  0  0  0  0  0  0  0  0  0
   -0.1099    1.3455    2.0571 H   0  0  0  0  0  0  0  0  0  0  0  0
    1.3697    4.8188    2.2229 H   0  0  0  0  0  0  0  0  0  0  0  0
    1.5625    5.0288    0.4775 H   0  0  0  0  0  0  0  0  0  0  0  0
    2.6225    3.9135    1.3468 H   0  0  0  0  0  0  0  0  0  0  0  0
    3.5497    3.5671   -1.1233 H   0  0  0  0  0  0  0  0  0  0  0  0
  1 24  1  0  0  0  0
  1 68  1  0  0  0  0
  2  5  1  0  0  0  0
  2  6  1  0  0  0  0
  2 27  1  0  0  0  0
  2 28  1  0  0  0  0
  3  4  1  0  0  0  0
  3  7  1  0  0  0  0
  3 29  1  0  0  0  0
  3 30  1  0  0  0  0
  4  8  1  0  0  0  0
  4 31  1  0  0  0  0
  4 32  1  0  0  0  0
  5 11  1  0  0  0  0
  5 33  1  0  0  0  0
  5 34  1  0  0  0  0
  6  8  2  0  0  0  0
  6 16  1  0  0  0  0
  7 13  2  0  0  0  0
  7 17  1  0  0  0  0
  8 35  1  0  0  0  0
  9 10  1  0  0  0  0
  9 11  2  0  0  0  0
  9 19  1  0  0  0  0
 10 15  1  0  0  0  0
 10 36  1  0  0  0  0
 10 37  1  0  0  0  0
 11 38  1  0  0  0  0
 12 13  1  0  0  0  0
 12 14  1  0  0  0  0
 12 39  1  0  0  0  0
 12 40  1  0  0  0  0
 13 41  1  0  0  0  0
 14 18  1  0  0  0  0
 14 42  1  0  0  0  0
 14 43  1  0  0  0  0
 15 20  1  0  0  0  0
 15 44  1  0  0  0  0
 15 45  1  0  0  0  0
 16 46  1  0  0  0  0
 16 47  1  0  0  0  0
 16 48  1  0  0  0  0
 17 49  1  0  0  0  0
 17 50  1  0  0  0  0
 17 51  1  0  0  0  0
 18 21  1  0  0  0  0
 18 23  2  0  0  0  0
 19 52  1  0  0  0  0
 19 53  1  0  0  0  0
 19 54  1  0  0  0  0
 20 22  2  0  0  0  0
 20 55  1  0  0  0  0
 21 56  1  0  0  0  0
 21 57  1  0  0  0  0
 21 58  1  0  0  0  0
 22 25  1  0  0  0  0
 22 26  1  0  0  0  0
 23 24  1  0  0  0  0
 23 59  1  0  0  0  0
 24 60  1  0  0  0  0
 24 61  1  0  0  0  0
 25 62  1  0  0  0  0
 25 63  1  0  0  0  0
 25 64  1  0  0  0  0
 26 65  1  0  0  0  0
 26 66  1  0  0  0  0
 26 67  1  0  0  0  0
M  END
> <PUBCHEM_COMPOUND_CID>
6439529

> <PUBCHEM_CONFORMER_RMSD>
1.4

> <PUBCHEM_CONFORMER_DIVERSEORDER>
1
125
41
235
81
54
79
23
114
197
17
120
208
46
92
157
47
116
154
15
210
62
239
237
50
201
106
93
155
32
122
133
60
252
29
115
203
139
99
238
236
20
42
151
117
112
212
138
27
55
223
126
244
28
177
66
188
63
186
229
96
2
72
83
182
220
102
146
193
128
251
118
181
180
45
214
218
204
113
110
172
68
191
166
145
243
240
230
4
170
200
9
250
91
248
187
74
7
249
48
147
224
222
161
189
111
231
65
108
207
219
245
97
242
211
70
232
175
127
171
206
213
104
84
64
169
156
168
141
124
101
137
77
135
24
22
69
130
216
61
16
103
173
150
136
123
179
88
174
75
49
228
152
5
176
98
59
195
131
3
119
67
134
100
25
247
39
89
221
76
105
38
121
194
246
158
94
18
215
86
8
217
226
80
11
109
142
19
196
148
56
163
34
52
162
90
132
30
183
209
140
144
192
202
199
190
178
71
57
241
13
26
82
164
44
185
33
233
129
87
31
153
227
107
167
159
10
234
160
6
14
198
85
53
51
73
58
40
95
35
78
165
184
143
205
37
36
43
149
225
21
12

> <PUBCHEM_MMFF94_PARTIAL_CHARGES>
32
1 -0.68
10 0.14
11 -0.29
12 0.14
13 -0.29
14 0.14
15 0.14
16 0.14
17 0.14
18 -0.28
19 0.14
2 0.14
20 -0.29
21 0.14
22 -0.28
23 -0.29
24 0.42
25 0.14
26 0.14
3 0.14
35 0.15
38 0.15
4 0.14
41 0.15
5 0.14
55 0.15
59 0.15
6 -0.28
68 0.4
7 -0.28
8 -0.29
9 -0.28

> <PUBCHEM_EFFECTIVE_ROTOR_COUNT>
13

> <PUBCHEM_PHARMACOPHORE_FEATURES>
11
1 1 acceptor
1 1 donor
1 16 hydrophobe
1 17 hydrophobe
1 19 hydrophobe
1 21 hydrophobe
3 22 25 26 hydrophobe
4 12 13 14 18 hydrophobe
4 2 5 6 11 hydrophobe
4 3 4 7 8 hydrophobe
4 9 10 15 20 hydrophobe

> <PUBCHEM_HEAVY_ATOM_COUNT>
26

> <PUBCHEM_ATOM_DEF_STEREO_COUNT>
0

> <PUBCHEM_ATOM_UDEF_STEREO_COUNT>
0

> <PUBCHEM_BOND_DEF_STEREO_COUNT>
4

> <PUBCHEM_BOND_UDEF_STEREO_COUNT>
0

> <PUBCHEM_ISOTOPIC_ATOM_COUNT>
0

> <PUBCHEM_COMPONENT_COUNT>
1

> <PUBCHEM_CACTVS_TAUTO_COUNT>
1

> <PUBCHEM_CONFORMER_ID>
0062426900000001

> <PUBCHEM_MMFF94_ENERGY>
23.3658

> <PUBCHEM_FEATURE_SELFOVERLAP>
55.873

> <PUBCHEM_SHAPE_FINGERPRINT>
12788726 201 18122059793345441971
13402501 40 18408606967993312523
14251764 38 18335425625457983238
14363568 33 18193851559283339313
14932702 115 18340216257918894576
15968369 26 18123157213699165176
16067689 302 18266185127205370951
20764821 26 18340198699738868172
21315764 268 18041841697379560287
21344244 246 17907564076846815783
21623110 236 18337401443985280249
338550 245 18260553342004056588
3493558 16 18113628893008031214
373842 8 18335696084429298002
445580 102 18339927021608777852
463206 1 18267866082103114592
6433294 58 18338802328994297276

> <PUBCHEM_SHAPE_MULTIPOLES>
529.2
11.69
5.78
1.54
2
2.27
-0.09
-2.27
-2
1.48
0.76
-0.34
0.73
1.15

> <PUBCHEM_SHAPE_SELFOVERLAP>
1005.797

> <PUBCHEM_SHAPE_VOLUME>
326.6

> <PUBCHEM_COORDINATE_TYPE>
2
5
10

$$$$
