6440731
  -OEChem-11232108513D

 37 37  0     1  0  0  0  0  0999 V2000
    1.7509   -0.3342    0.1523 O   0  0  0  0  0  0  0  0  0  0  0  0
    3.8433    0.6164   -0.3683 O   0  0  0  0  0  0  0  0  0  0  0  0
    0.1307   -2.5917    0.0786 O   0  0  0  0  0  0  0  0  0  0  0  0
    2.5647    0.2142   -0.8894 C   0  0  1  0  0  0  0  0  0  0  0  0
    0.3909   -0.2117    0.0680 C   0  0  0  0  0  0  0  0  0  0  0  0
   -0.4163   -1.3450    0.0311 C   0  0  0  0  0  0  0  0  0  0  0  0
   -2.3737    0.0647   -0.1045 C   0  0  0  0  0  0  0  0  0  0  0  0
   -0.1753    1.0591    0.0193 C   0  0  0  0  0  0  0  0  0  0  0  0
   -1.8016   -1.2065   -0.0552 C   0  0  0  0  0  0  0  0  0  0  0  0
    2.8523   -0.8692   -1.9229 C   0  0  0  0  0  0  0  0  0  0  0  0
   -1.5605    1.1974   -0.0671 C   0  0  0  0  0  0  0  0  0  0  0  0
    3.7276    1.6342    0.6179 C   0  0  0  0  0  0  0  0  0  0  0  0
   -3.8182    0.2092   -0.1945 C   0  0  0  0  0  0  0  0  0  0  0  0
    5.1105    1.9999    1.1137 C   0  0  0  0  0  0  0  0  0  0  0  0
   -4.5253    1.3167    0.1257 C   0  0  0  0  0  0  0  0  0  0  0  0
    0.3131   -3.1706    1.3693 C   0  0  0  0  0  0  0  0  0  0  0  0
   -6.0129    1.4170    0.0259 C   0  0  0  0  0  0  0  0  0  0  0  0
    2.0994    1.0778   -1.3799 H   0  0  0  0  0  0  0  0  0  0  0  0
    0.4444    1.9506    0.0581 H   0  0  0  0  0  0  0  0  0  0  0  0
   -2.4258   -2.0971   -0.0831 H   0  0  0  0  0  0  0  0  0  0  0  0
    1.9279   -1.2247   -2.3883 H   0  0  0  0  0  0  0  0  0  0  0  0
    3.3355   -1.7327   -1.4516 H   0  0  0  0  0  0  0  0  0  0  0  0
    3.5268   -0.4987   -2.7013 H   0  0  0  0  0  0  0  0  0  0  0  0
   -1.9599    2.2060   -0.1196 H   0  0  0  0  0  0  0  0  0  0  0  0
    3.2444    2.5157    0.1824 H   0  0  0  0  0  0  0  0  0  0  0  0
    3.1269    1.2796    1.4622 H   0  0  0  0  0  0  0  0  0  0  0  0
   -4.3614   -0.6672   -0.5422 H   0  0  0  0  0  0  0  0  0  0  0  0
    5.0586    2.7843    1.8739 H   0  0  0  0  0  0  0  0  0  0  0  0
    5.6104    1.1249    1.5421 H   0  0  0  0  0  0  0  0  0  0  0  0
    5.7363    2.3506    0.2865 H   0  0  0  0  0  0  0  0  0  0  0  0
   -4.0343    2.2086    0.5028 H   0  0  0  0  0  0  0  0  0  0  0  0
   -0.6498   -3.2876    1.8765 H   0  0  0  0  0  0  0  0  0  0  0  0
    0.9856   -2.5558    1.9758 H   0  0  0  0  0  0  0  0  0  0  0  0
    0.7632   -4.1588    1.2409 H   0  0  0  0  0  0  0  0  0  0  0  0
   -6.4386    1.6349    1.0101 H   0  0  0  0  0  0  0  0  0  0  0  0
   -6.2865    2.2284   -0.6554 H   0  0  0  0  0  0  0  0  0  0  0  0
   -6.4660    0.4924   -0.3451 H   0  0  0  0  0  0  0  0  0  0  0  0
  1  4  1  0  0  0  0
  1  5  1  0  0  0  0
  2  4  1  0  0  0  0
  2 12  1  0  0  0  0
  3  6  1  0  0  0  0
  3 16  1  0  0  0  0
  4 10  1  0  0  0  0
  4 18  1  0  0  0  0
  5  6  2  0  0  0  0
  5  8  1  0  0  0  0
  6  9  1  0  0  0  0
  7  9  2  0  0  0  0
  7 11  1  0  0  0  0
  7 13  1  0  0  0  0
  8 11  2  0  0  0  0
  8 19  1  0  0  0  0
  9 20  1  0  0  0  0
 10 21  1  0  0  0  0
 10 22  1  0  0  0  0
 10 23  1  0  0  0  0
 11 24  1  0  0  0  0
 12 14  1  0  0  0  0
 12 25  1  0  0  0  0
 12 26  1  0  0  0  0
 13 15  2  0  0  0  0
 13 27  1  0  0  0  0
 14 28  1  0  0  0  0
 14 29  1  0  0  0  0
 14 30  1  0  0  0  0
 15 17  1  0  0  0  0
 15 31  1  0  0  0  0
 16 32  1  0  0  0  0
 16 33  1  0  0  0  0
 16 34  1  0  0  0  0
 17 35  1  0  0  0  0
 17 36  1  0  0  0  0
 17 37  1  0  0  0  0
M  END
> <PUBCHEM_COMPOUND_CID>
6440731

> <PUBCHEM_CONFORMER_RMSD>
0.8

> <PUBCHEM_CONFORMER_DIVERSEORDER>
1
30
41
20
31
42
16
40
36
37
44
46
33
17
39
25
45
38
22
47
7
8
35
24
11
3
23
27
19
18
12
43
28
15
29
34
26
2
10
5
14
49
9
6
4
21
32
13
48

> <PUBCHEM_MMFF94_PARTIAL_CHARGES>
20
1 -0.36
11 -0.15
12 0.28
13 -0.18
15 -0.29
16 0.28
17 0.14
19 0.15
2 -0.56
20 0.15
24 0.15
27 0.15
3 -0.36
31 0.15
4 0.56
5 0.08
6 0.08
7 0.03
8 -0.15
9 -0.15

> <PUBCHEM_EFFECTIVE_ROTOR_COUNT>
6

> <PUBCHEM_PHARMACOPHORE_FEATURES>
5
1 1 acceptor
1 17 hydrophobe
1 2 acceptor
1 3 acceptor
6 5 6 7 8 9 11 rings

> <PUBCHEM_HEAVY_ATOM_COUNT>
17

> <PUBCHEM_ATOM_DEF_STEREO_COUNT>
0

> <PUBCHEM_ATOM_UDEF_STEREO_COUNT>
1

> <PUBCHEM_BOND_DEF_STEREO_COUNT>
1

> <PUBCHEM_BOND_UDEF_STEREO_COUNT>
0

> <PUBCHEM_ISOTOPIC_ATOM_COUNT>
0

> <PUBCHEM_COMPONENT_COUNT>
1

> <PUBCHEM_CACTVS_TAUTO_COUNT>
1

> <PUBCHEM_CONFORMER_ID>
0062471B00000001

> <PUBCHEM_MMFF94_ENERGY>
57.2172

> <PUBCHEM_FEATURE_SELFOVERLAP>
25.416

> <PUBCHEM_SHAPE_FINGERPRINT>
10493431 412 18409447016283249961
11132069 177 18333736831558849069
11543360 7 16702016496004789341
12532896 13 18409167748566626286
12644460 14 18044666304264877315
12788726 201 17246696040785591826
13140716 1 18261387819468703907
13955234 65 18192152594870629923
15375358 24 18201158853442740284
17980427 23 18191860343942351612
1813 80 10592043552849144266
18186145 218 18410299081564523964
18222031 100 9799688190837292181
19784866 34 18410287004469791697
19784866 9 18262515892897308915
20645476 183 17605013548562029902
20645477 56 18410857689279849356
20645477 70 17274549719447974204
212916 134 18337096960594575528
21452121 103 18339919325291127376
21618674 25 18059853995681195644
23402539 116 18341885338054913380
23557571 272 18196670702933897182
23559900 14 18340498824328365198
2916195 48 18271803570585967745
293599 30 18412826893420522921
3071541 37 18115035078317615791
34934 24 18202277009491756957
4072396 5 17676481727147540585
4340502 62 17603592889992931139
465052 167 11818994058847788704
495365 180 17704348866865455118
4990 188 17988649545383209351
5104073 3 18334580097274962843
58807428 26 18187074062119650346
633830 44 18343019965303523221
7364860 26 18193837037777903950
81228 2 17974588075611788362
81539 233 17895479124758239943

> <PUBCHEM_SHAPE_MULTIPOLES>
332.24
9.91
2.6
1.11
4.72
1.95
-0.23
-9.22
0.72
-0.97
1.17
-1.31
0.38
1.01

> <PUBCHEM_SHAPE_SELFOVERLAP>
665.62

> <PUBCHEM_SHAPE_VOLUME>
197.7

> <PUBCHEM_COORDINATE_TYPE>
2
5
10

$$$$
