6440993
  -OEChem-11232109413D

 30 29  0     1  0  0  0  0  0999 V2000
   -0.0873    0.0135   -0.1889 O   0  0  0  0  0  0  0  0  0  0  0  0
    1.2122   -1.0008    1.4300 O   0  0  0  0  0  0  0  0  0  0  0  0
   -2.9910    0.7845   -0.2516 C   0  0  0  0  0  0  0  0  0  0  0  0
   -2.3257   -0.4560   -0.8742 C   0  0  0  0  0  0  0  0  0  0  0  0
   -1.0952   -0.9982   -0.1371 C   0  0  1  0  0  0  0  0  0  0  0  0
   -3.4215    0.5501    1.1965 C   0  0  0  0  0  0  0  0  0  0  0  0
   -2.0301    1.9749   -0.3193 C   0  0  0  0  0  0  0  0  0  0  0  0
   -0.5332   -2.2719   -0.7539 C   0  0  0  0  0  0  0  0  0  0  0  0
    1.0770   -0.2845    0.4507 C   0  0  0  0  0  0  0  0  0  0  0  0
    2.1699    0.4198   -0.2536 C   0  0  0  0  0  0  0  0  0  0  0  0
    3.4321    0.2960    0.1770 C   0  0  0  0  0  0  0  0  0  0  0  0
    4.5928    0.9726   -0.4756 C   0  0  0  0  0  0  0  0  0  0  0  0
   -3.8802    1.0216   -0.8490 H   0  0  0  0  0  0  0  0  0  0  0  0
   -2.0490   -0.2175   -1.9100 H   0  0  0  0  0  0  0  0  0  0  0  0
   -3.0780   -1.2535   -0.9304 H   0  0  0  0  0  0  0  0  0  0  0  0
   -1.3538   -1.2011    0.9083 H   0  0  0  0  0  0  0  0  0  0  0  0
   -2.5679    0.4263    1.8703 H   0  0  0  0  0  0  0  0  0  0  0  0
   -4.0537   -0.3404    1.2747 H   0  0  0  0  0  0  0  0  0  0  0  0
   -4.0029    1.4041    1.5613 H   0  0  0  0  0  0  0  0  0  0  0  0
   -1.5457    2.0536   -1.2979 H   0  0  0  0  0  0  0  0  0  0  0  0
   -2.5937    2.9031   -0.1657 H   0  0  0  0  0  0  0  0  0  0  0  0
   -1.2668    1.9538    0.4638 H   0  0  0  0  0  0  0  0  0  0  0  0
   -0.1191   -2.0750   -1.7492 H   0  0  0  0  0  0  0  0  0  0  0  0
    0.2704   -2.7103   -0.1551 H   0  0  0  0  0  0  0  0  0  0  0  0
   -1.3156   -3.0318   -0.8506 H   0  0  0  0  0  0  0  0  0  0  0  0
    1.9234    1.0304   -1.1157 H   0  0  0  0  0  0  0  0  0  0  0  0
    3.6634   -0.3194    1.0423 H   0  0  0  0  0  0  0  0  0  0  0  0
    5.0918    1.6308    0.2422 H   0  0  0  0  0  0  0  0  0  0  0  0
    4.2911    1.5750   -1.3384 H   0  0  0  0  0  0  0  0  0  0  0  0
    5.3155    0.2253   -0.8173 H   0  0  0  0  0  0  0  0  0  0  0  0
  1  5  1  0  0  0  0
  1  9  1  0  0  0  0
  2  9  2  0  0  0  0
  3  4  1  0  0  0  0
  3  6  1  0  0  0  0
  3  7  1  0  0  0  0
  3 13  1  0  0  0  0
  4  5  1  0  0  0  0
  4 14  1  0  0  0  0
  4 15  1  0  0  0  0
  5  8  1  0  0  0  0
  5 16  1  0  0  0  0
  6 17  1  0  0  0  0
  6 18  1  0  0  0  0
  6 19  1  0  0  0  0
  7 20  1  0  0  0  0
  7 21  1  0  0  0  0
  7 22  1  0  0  0  0
  8 23  1  0  0  0  0
  8 24  1  0  0  0  0
  8 25  1  0  0  0  0
  9 10  1  0  0  0  0
 10 11  2  0  0  0  0
 10 26  1  0  0  0  0
 11 12  1  0  0  0  0
 11 27  1  0  0  0  0
 12 28  1  0  0  0  0
 12 29  1  0  0  0  0
 12 30  1  0  0  0  0
M  END
> <PUBCHEM_COMPOUND_CID>
6440993

> <PUBCHEM_CONFORMER_RMSD>
0.6

> <PUBCHEM_CONFORMER_DIVERSEORDER>
1
18
4
11
9
17
5
3
16
15
2
14
7
10
13
8
12
6

> <PUBCHEM_MMFF94_PARTIAL_CHARGES>
9
1 -0.43
10 -0.14
11 -0.29
12 0.14
2 -0.57
26 0.15
27 0.15
5 0.28
9 0.71

> <PUBCHEM_EFFECTIVE_ROTOR_COUNT>
5

> <PUBCHEM_PHARMACOPHORE_FEATURES>
3
1 12 hydrophobe
1 2 acceptor
3 3 6 7 hydrophobe

> <PUBCHEM_HEAVY_ATOM_COUNT>
12

> <PUBCHEM_ATOM_DEF_STEREO_COUNT>
0

> <PUBCHEM_ATOM_UDEF_STEREO_COUNT>
1

> <PUBCHEM_BOND_DEF_STEREO_COUNT>
1

> <PUBCHEM_BOND_UDEF_STEREO_COUNT>
0

> <PUBCHEM_ISOTOPIC_ATOM_COUNT>
0

> <PUBCHEM_COMPONENT_COUNT>
1

> <PUBCHEM_CACTVS_TAUTO_COUNT>
1

> <PUBCHEM_CONFORMER_ID>
0062482100000001

> <PUBCHEM_MMFF94_ENERGY>
21.8322

> <PUBCHEM_FEATURE_SELFOVERLAP>
15.223

> <PUBCHEM_SHAPE_FINGERPRINT>
10726558 24 17917438605078811110
11769659 78 10375867476764385196
12346645 44 18187079546877107544
12932764 1 18342726421204947000
13214271 11 16588018026361112981
14115302 16 10735865188890617297
14123260 362 18115882939427410652
14648413 74 17690281504466982357
14943859 89 17918277541077414923
15775835 57 18410291385088747665
17834072 14 8862653547796883215
18186145 218 17703787016207507368
19873495 37 18260552233812926994
201361 129 18041556923825060288
20211469 26 9511466597888361024
20645477 56 18342176704573440988
20653085 51 18337961198287821920
20711985 327 12612763405892677143
23402539 116 18129653231495769631
23557571 272 17915186934393622084
23559900 14 17775847935330590704
42627469 27 18334011692364863186
6333449 129 18343298214443198692
81228 2 17840284942255724419
9882013 296 14418140633913067456

> <PUBCHEM_SHAPE_MULTIPOLES>
235.22
6.85
1.76
1.03
5.88
0.47
-0.25
-3.48
0.11
-0.87
0.38
-0.31
0.12
-0.46

> <PUBCHEM_SHAPE_SELFOVERLAP>
441.098

> <PUBCHEM_SHAPE_VOLUME>
147.1

> <PUBCHEM_COORDINATE_TYPE>
2
5
10

$$$$
