6441593
  -OEChem-11232108533D

 42 41  0     0  0  0  0  0  0999 V2000
    3.5365    1.1154    0.3289 O   0  0  0  0  0  0  0  0  0  0  0  0
    5.3182    2.1163   -0.7485 O   0  0  0  0  0  0  0  0  0  0  0  0
   -2.7535   -0.3012    0.1107 C   0  0  0  0  0  0  0  0  0  0  0  0
   -2.0206   -1.5726   -0.3273 C   0  0  0  0  0  0  0  0  0  0  0  0
   -4.2134   -0.2508   -0.3481 C   0  0  0  0  0  0  0  0  0  0  0  0
   -0.5836   -1.6570    0.1938 C   0  0  0  0  0  0  0  0  0  0  0  0
   -4.9136    1.0046    0.1792 C   0  0  0  0  0  0  0  0  0  0  0  0
    0.0747   -2.9797   -0.2144 C   0  0  0  0  0  0  0  0  0  0  0  0
   -6.3725    1.1188   -0.2683 C   0  0  0  0  0  0  0  0  0  0  0  0
    1.5060   -3.1250    0.3124 C   0  0  0  0  0  0  0  0  0  0  0  0
   -7.0795    2.3508    0.2751 C   0  0  0  0  0  0  0  0  0  0  0  0
    2.4402   -2.0845   -0.2345 C   0  0  0  0  0  0  0  0  0  0  0  0
    3.1071   -1.2060    0.5285 C   0  0  0  0  0  0  0  0  0  0  0  0
    4.0340   -0.1696   -0.0170 C   0  0  0  0  0  0  0  0  0  0  0  0
    4.2809    2.1789   -0.1026 C   0  0  0  0  0  0  0  0  0  0  0  0
    3.6391    3.4616    0.3321 C   0  0  0  0  0  0  0  0  0  0  0  0
   -2.2188    0.5741   -0.2783 H   0  0  0  0  0  0  0  0  0  0  0  0
   -2.7191   -0.2321    1.2052 H   0  0  0  0  0  0  0  0  0  0  0  0
   -2.0145   -1.6248   -1.4231 H   0  0  0  0  0  0  0  0  0  0  0  0
   -2.5828   -2.4452    0.0279 H   0  0  0  0  0  0  0  0  0  0  0  0
   -4.7436   -1.1417    0.0090 H   0  0  0  0  0  0  0  0  0  0  0  0
   -4.2544   -0.2659   -1.4436 H   0  0  0  0  0  0  0  0  0  0  0  0
   -0.0141   -0.8071   -0.1989 H   0  0  0  0  0  0  0  0  0  0  0  0
   -0.5838   -1.5713    1.2871 H   0  0  0  0  0  0  0  0  0  0  0  0
   -4.3664    1.8936   -0.1581 H   0  0  0  0  0  0  0  0  0  0  0  0
   -4.8746    1.0062    1.2757 H   0  0  0  0  0  0  0  0  0  0  0  0
    0.0747   -3.0668   -1.3083 H   0  0  0  0  0  0  0  0  0  0  0  0
   -0.5228   -3.8160    0.1690 H   0  0  0  0  0  0  0  0  0  0  0  0
   -6.9216    0.2261    0.0541 H   0  0  0  0  0  0  0  0  0  0  0  0
   -6.4153    1.1395   -1.3637 H   0  0  0  0  0  0  0  0  0  0  0  0
    1.4929   -3.1018    1.4090 H   0  0  0  0  0  0  0  0  0  0  0  0
    1.8888   -4.1119    0.0259 H   0  0  0  0  0  0  0  0  0  0  0  0
   -6.5792    3.2658   -0.0574 H   0  0  0  0  0  0  0  0  0  0  0  0
   -7.0902    2.3435    1.3696 H   0  0  0  0  0  0  0  0  0  0  0  0
   -8.1156    2.3811   -0.0763 H   0  0  0  0  0  0  0  0  0  0  0  0
    2.5718   -2.0645   -1.3135 H   0  0  0  0  0  0  0  0  0  0  0  0
    2.9782   -1.2290    1.6078 H   0  0  0  0  0  0  0  0  0  0  0  0
    4.1214   -0.2477   -1.1071 H   0  0  0  0  0  0  0  0  0  0  0  0
    5.0260   -0.3111    0.4276 H   0  0  0  0  0  0  0  0  0  0  0  0
    2.6401    3.5421   -0.1038 H   0  0  0  0  0  0  0  0  0  0  0  0
    4.2410    4.3052   -0.0174 H   0  0  0  0  0  0  0  0  0  0  0  0
    3.5876    3.4987    1.4231 H   0  0  0  0  0  0  0  0  0  0  0  0
  1 14  1  0  0  0  0
  1 15  1  0  0  0  0
  2 15  2  0  0  0  0
  3  4  1  0  0  0  0
  3  5  1  0  0  0  0
  3 17  1  0  0  0  0
  3 18  1  0  0  0  0
  4  6  1  0  0  0  0
  4 19  1  0  0  0  0
  4 20  1  0  0  0  0
  5  7  1  0  0  0  0
  5 21  1  0  0  0  0
  5 22  1  0  0  0  0
  6  8  1  0  0  0  0
  6 23  1  0  0  0  0
  6 24  1  0  0  0  0
  7  9  1  0  0  0  0
  7 25  1  0  0  0  0
  7 26  1  0  0  0  0
  8 10  1  0  0  0  0
  8 27  1  0  0  0  0
  8 28  1  0  0  0  0
  9 11  1  0  0  0  0
  9 29  1  0  0  0  0
  9 30  1  0  0  0  0
 10 12  1  0  0  0  0
 10 31  1  0  0  0  0
 10 32  1  0  0  0  0
 11 33  1  0  0  0  0
 11 34  1  0  0  0  0
 11 35  1  0  0  0  0
 12 13  2  0  0  0  0
 12 36  1  0  0  0  0
 13 14  1  0  0  0  0
 13 37  1  0  0  0  0
 14 38  1  0  0  0  0
 14 39  1  0  0  0  0
 15 16  1  0  0  0  0
 16 40  1  0  0  0  0
 16 41  1  0  0  0  0
 16 42  1  0  0  0  0
M  END
> <PUBCHEM_COMPOUND_CID>
6441593

> <PUBCHEM_CONFORMER_RMSD>
1.2

> <PUBCHEM_CONFORMER_DIVERSEORDER>
2
31
1
25
17
34
5
22
28
12
57
9
3
58
36
4
37
49
44
7
40
52
15
45
39
56
13
32
14
33
53
23
19
59
26
55
29
27
11
51
20
38
6
10
41
46
24
18
60
54
35
30
16
61
48
47
42
50
21
43
8

> <PUBCHEM_MMFF94_PARTIAL_CHARGES>
10
1 -0.43
10 0.14
12 -0.29
13 -0.29
14 0.42
15 0.66
16 0.06
2 -0.57
36 0.15
37 0.15

> <PUBCHEM_EFFECTIVE_ROTOR_COUNT>
11

> <PUBCHEM_PHARMACOPHORE_FEATURES>
2
1 11 hydrophobe
1 2 acceptor

> <PUBCHEM_HEAVY_ATOM_COUNT>
16

> <PUBCHEM_ATOM_DEF_STEREO_COUNT>
0

> <PUBCHEM_ATOM_UDEF_STEREO_COUNT>
0

> <PUBCHEM_BOND_DEF_STEREO_COUNT>
1

> <PUBCHEM_BOND_UDEF_STEREO_COUNT>
0

> <PUBCHEM_ISOTOPIC_ATOM_COUNT>
0

> <PUBCHEM_COMPONENT_COUNT>
1

> <PUBCHEM_CACTVS_TAUTO_COUNT>
1

> <PUBCHEM_CONFORMER_ID>
00624A7900000002

> <PUBCHEM_MMFF94_ENERGY>
1.5238

> <PUBCHEM_FEATURE_SELFOVERLAP>
10.148

> <PUBCHEM_SHAPE_FINGERPRINT>
12821665 9 18340480167328463631
12990986 174 9186360272214262653
13955234 65 17970626277867443163
14123255 52 18266458883492237170
14142895 15 18411416208145683533
14223995 32 18126838525095736616
14251732 16 18408605851919286331
14251764 75 18335706099618000236
14429114 114 18341608213991564513
14429380 56 18336532825926461037
14774955 27 18409443679041030503
15142526 21 18260828211337267179
15322687 12 18343016731008819024
15342168 16 18410570691144124743
155225 5 16824464995744553612
155225 6 18335146439715438717
16760501 71 18408890633693429457
1768 23 17344649045556070729
17810953 82 18408044009049173020
17834072 32 18337952415116735230
18335252 114 18339636729270196814
19427546 62 18410573947130703131
22224240 67 10882557654030022782
245318 6 18042420177707812717
270888 7 18410011082780475148
3472631 163 18344146986365810695
474 4 18411418393013036155
5104073 3 18040714770975508475
5312510 48 18412263909207609649
56616090 13 18409165528189931739
59124914 9 18336826498430820378
59682541 52 17274554130933385734
7970288 3 9367083145923744580

> <PUBCHEM_SHAPE_MULTIPOLES>
317.53
16.11
4.38
0.7
23.54
0.88
0.01
18.06
0.43
-5.02
-0.14
-0.11
0.02
-0.67

> <PUBCHEM_SHAPE_SELFOVERLAP>
581.352

> <PUBCHEM_SHAPE_VOLUME>
201.4

> <PUBCHEM_COORDINATE_TYPE>
2
5
10

$$$$
