6441873
  -OEChem-11232109263D

 34 33  0     0  0  0  0  0  0999 V2000
    0.1832   -1.0716   -0.1820 O   0  0  0  0  0  0  0  0  0  0  0  0
    2.2236   -1.5667    0.7650 O   0  0  0  0  0  0  0  0  0  0  0  0
   -1.9464   -2.0677    0.3764 C   0  0  0  0  0  0  0  0  0  0  0  0
   -0.4504   -2.0351    0.6663 C   0  0  0  0  0  0  0  0  0  0  0  0
   -2.5823   -0.7220    0.5844 C   0  0  0  0  0  0  0  0  0  0  0  0
    2.0421    0.0883   -0.9756 C   0  0  0  0  0  0  0  0  0  0  0  0
    1.6386    1.8282    0.8435 C   0  0  0  0  0  0  0  0  0  0  0  0
   -3.8504    1.3044   -0.1715 C   0  0  0  0  0  0  0  0  0  0  0  0
    2.0686    1.3530   -0.5160 C   0  0  0  0  0  0  0  0  0  0  0  0
   -3.2236   -0.0426   -0.3778 C   0  0  0  0  0  0  0  0  0  0  0  0
    1.5289   -0.9419   -0.0239 C   0  0  0  0  0  0  0  0  0  0  0  0
    2.4397   -0.3498   -2.3539 C   0  0  0  0  0  0  0  0  0  0  0  0
    2.7938    1.7988    1.8314 C   0  0  0  0  0  0  0  0  0  0  0  0
   -2.8652    2.4247   -0.4663 C   0  0  0  0  0  0  0  0  0  0  0  0
   -2.1029   -2.4003   -0.6571 H   0  0  0  0  0  0  0  0  0  0  0  0
   -2.4322   -2.7983    1.0325 H   0  0  0  0  0  0  0  0  0  0  0  0
   -0.2730   -1.7663    1.7149 H   0  0  0  0  0  0  0  0  0  0  0  0
   -0.0205   -3.0252    0.4750 H   0  0  0  0  0  0  0  0  0  0  0  0
   -2.5166   -0.2969    1.5831 H   0  0  0  0  0  0  0  0  0  0  0  0
    0.8030    1.2368    1.2332 H   0  0  0  0  0  0  0  0  0  0  0  0
    1.2616    2.8536    0.7505 H   0  0  0  0  0  0  0  0  0  0  0  0
   -4.7275    1.3946   -0.8222 H   0  0  0  0  0  0  0  0  0  0  0  0
   -4.2136    1.4021    0.8586 H   0  0  0  0  0  0  0  0  0  0  0  0
    2.4374    2.1304   -1.1830 H   0  0  0  0  0  0  0  0  0  0  0  0
   -3.2849   -0.4604   -1.3794 H   0  0  0  0  0  0  0  0  0  0  0  0
    3.2628   -1.0691   -2.2990 H   0  0  0  0  0  0  0  0  0  0  0  0
    2.7688    0.4950   -2.9675 H   0  0  0  0  0  0  0  0  0  0  0  0
    1.5945   -0.8263   -2.8604 H   0  0  0  0  0  0  0  0  0  0  0  0
    3.6253    2.4227    1.4863 H   0  0  0  0  0  0  0  0  0  0  0  0
    2.4670    2.1823    2.8034 H   0  0  0  0  0  0  0  0  0  0  0  0
    3.1712    0.7823    1.9816 H   0  0  0  0  0  0  0  0  0  0  0  0
   -3.3467    3.3976   -0.3251 H   0  0  0  0  0  0  0  0  0  0  0  0
   -2.5044    2.3729   -1.4992 H   0  0  0  0  0  0  0  0  0  0  0  0
   -1.9972    2.3780    0.2003 H   0  0  0  0  0  0  0  0  0  0  0  0
  1  4  1  0  0  0  0
  1 11  1  0  0  0  0
  2 11  2  0  0  0  0
  3  4  1  0  0  0  0
  3  5  1  0  0  0  0
  3 15  1  0  0  0  0
  3 16  1  0  0  0  0
  4 17  1  0  0  0  0
  4 18  1  0  0  0  0
  5 10  2  0  0  0  0
  5 19  1  0  0  0  0
  6  9  2  0  0  0  0
  6 11  1  0  0  0  0
  6 12  1  0  0  0  0
  7  9  1  0  0  0  0
  7 13  1  0  0  0  0
  7 20  1  0  0  0  0
  7 21  1  0  0  0  0
  8 10  1  0  0  0  0
  8 14  1  0  0  0  0
  8 22  1  0  0  0  0
  8 23  1  0  0  0  0
  9 24  1  0  0  0  0
 10 25  1  0  0  0  0
 12 26  1  0  0  0  0
 12 27  1  0  0  0  0
 12 28  1  0  0  0  0
 13 29  1  0  0  0  0
 13 30  1  0  0  0  0
 13 31  1  0  0  0  0
 14 32  1  0  0  0  0
 14 33  1  0  0  0  0
 14 34  1  0  0  0  0
M  END
> <PUBCHEM_COMPOUND_CID>
6441873

> <PUBCHEM_CONFORMER_RMSD>
0.8

> <PUBCHEM_CONFORMER_DIVERSEORDER>
2
43
181
38
141
160
127
205
192
92
79
120
94
68
51
165
187
227
172
240
111
232
103
162
100
102
69
116
201
23
125
39
163
190
25
35
21
183
113
59
29
157
31
36
185
138
182
67
101
137
122
10
237
84
99
136
191
180
49
200
241
70
42
236
133
26
166
89
158
234
134
16
33
207
188
15
214
135
4
105
64
121
24
142
27
218
219
196
12
167
224
3
161
146
149
210
13
41
34
229
118
212
9
46
203
86
153
239
119
32
18
238
57
194
117
209
148
171
215
177
126
52
211
63
45
152
110
66
47
199
71
17
184
174
77
11
228
156
85
129
198
186
176
96
235
222
109
178
204
82
98
231
62
223
97
170
78
44
159
123
213
132
106
56
243
150
225
108
37
131
179
202
168
40
114
169
93
95
154
28
143
1
5
124
19
107
8
155
140
128
61
208
233
112
20
55
76
65
230
74
60
104
195
175
54
139
83
216
206
58
91
221
90
22
75
189
144
147
73
87
220
48
193
197
88
14
242
164
30
217
72
50
145
151
130
7
53
81
6
226
80
173
244
115

> <PUBCHEM_MMFF94_PARTIAL_CHARGES>
15
1 -0.43
10 -0.29
11 0.71
12 0.14
19 0.15
2 -0.57
24 0.15
25 0.15
3 0.14
4 0.28
5 -0.29
6 -0.12
7 0.14
8 0.14
9 -0.29

> <PUBCHEM_EFFECTIVE_ROTOR_COUNT>
7

> <PUBCHEM_PHARMACOPHORE_FEATURES>
4
1 12 hydrophobe
1 13 hydrophobe
1 14 hydrophobe
1 2 acceptor

> <PUBCHEM_HEAVY_ATOM_COUNT>
14

> <PUBCHEM_ATOM_DEF_STEREO_COUNT>
0

> <PUBCHEM_ATOM_UDEF_STEREO_COUNT>
0

> <PUBCHEM_BOND_DEF_STEREO_COUNT>
2

> <PUBCHEM_BOND_UDEF_STEREO_COUNT>
0

> <PUBCHEM_ISOTOPIC_ATOM_COUNT>
0

> <PUBCHEM_COMPONENT_COUNT>
1

> <PUBCHEM_CACTVS_TAUTO_COUNT>
1

> <PUBCHEM_CONFORMER_ID>
00624B9100000002

> <PUBCHEM_MMFF94_ENERGY>
12.6248

> <PUBCHEM_FEATURE_SELFOVERLAP>
20.297

> <PUBCHEM_SHAPE_FINGERPRINT>
10498660 4 18188499106751775957
11715629 250 18271245035964220131
12932764 1 18339094790312825843
13294875 104 18336541621207300882
13764800 53 17896053168712218939
14251732 17 18201423818807966664
15775835 57 18261122833155499341
17041 50 18129959904786980390
17357990 137 17168144589144295310
18186145 218 18272098184104584899
20233049 118 18336552599264781822
20304884 271 18337393734566424043
21486144 27 17630630000604416723
21524375 3 18189335672113652707
21947302 44 18271801354224340545
230 275 18264771128494971978
23557571 272 18125167284168245271
2803657 2 17839754663901980305
3524813 1 17984982854250934569
3797600 57 15940382733964874915
5262128 65 17417544518218562373
6049 1 18126870362986057507
621550 5 17258559693728854066
8050 44 18129096908428784033
81228 2 17618523406825633291

> <PUBCHEM_SHAPE_MULTIPOLES>
276.37
6.18
2.72
1.54
4.15
0.45
0.44
2.8
0.43
0.8
-0.72
-1.84
0.22
1.41

> <PUBCHEM_SHAPE_SELFOVERLAP>
518.877

> <PUBCHEM_SHAPE_VOLUME>
172.1

> <PUBCHEM_COORDINATE_TYPE>
2
5
10

$$$$
