6441164
  -OEChem-11232109073D

 31 33  0     1  0  0  0  0  0999 V2000
   -2.2531    0.9225   -0.0103 O   0  0  0  0  0  0  0  0  0  0  0  0
   -0.3972   -0.6892   -0.1697 C   0  0  2  0  0  0  0  0  0  0  0  0
    0.8189   -0.3521    0.7223 C   0  0  2  0  0  0  0  0  0  0  0  0
    0.0489    1.6739    0.1560 C   0  0  1  0  0  0  0  0  0  0  0  0
   -0.9456    0.7140   -0.5405 C   0  0  2  0  0  0  0  0  0  0  0  0
    0.3629    0.9146    1.4513 C   0  0  0  0  0  0  0  0  0  0  0  0
    1.4113    1.6312   -0.5642 C   0  0  0  0  0  0  0  0  0  0  0  0
    1.8778    0.2482   -0.1801 C   0  0  0  0  0  0  0  0  0  0  0  0
   -1.4481   -1.5479    0.5326 C   0  0  0  0  0  0  0  0  0  0  0  0
   -2.7669   -1.4705   -0.2244 C   0  0  0  0  0  0  0  0  0  0  0  0
   -3.1907   -0.0294   -0.5090 C   0  0  0  0  0  0  0  0  0  0  0  0
    3.0329   -0.3203   -0.5356 C   0  0  0  0  0  0  0  0  0  0  0  0
    3.4490   -1.6950   -0.1283 C   0  0  0  0  0  0  0  0  0  0  0  0
   -0.0692   -1.2084   -1.0805 H   0  0  0  0  0  0  0  0  0  0  0  0
    1.1448   -1.1507    1.3895 H   0  0  0  0  0  0  0  0  0  0  0  0
   -0.3425    2.6818    0.3124 H   0  0  0  0  0  0  0  0  0  0  0  0
   -0.9657    0.8779   -1.6246 H   0  0  0  0  0  0  0  0  0  0  0  0
   -0.5151    0.7651    2.0872 H   0  0  0  0  0  0  0  0  0  0  0  0
    1.1544    1.3874    2.0447 H   0  0  0  0  0  0  0  0  0  0  0  0
    2.0873    2.3920   -0.1597 H   0  0  0  0  0  0  0  0  0  0  0  0
    1.3097    1.7559   -1.6461 H   0  0  0  0  0  0  0  0  0  0  0  0
   -1.6068   -1.2113    1.5641 H   0  0  0  0  0  0  0  0  0  0  0  0
   -1.1055   -2.5871    0.5942 H   0  0  0  0  0  0  0  0  0  0  0  0
   -2.6793   -2.0089   -1.1764 H   0  0  0  0  0  0  0  0  0  0  0  0
   -3.5541   -1.9878    0.3364 H   0  0  0  0  0  0  0  0  0  0  0  0
   -3.3315    0.1304   -1.5846 H   0  0  0  0  0  0  0  0  0  0  0  0
   -4.1530    0.1765   -0.0285 H   0  0  0  0  0  0  0  0  0  0  0  0
    3.7226    0.2336   -1.1668 H   0  0  0  0  0  0  0  0  0  0  0  0
    3.7892   -2.2458   -1.0115 H   0  0  0  0  0  0  0  0  0  0  0  0
    2.6510   -2.2850    0.3277 H   0  0  0  0  0  0  0  0  0  0  0  0
    4.2847   -1.6375    0.5757 H   0  0  0  0  0  0  0  0  0  0  0  0
  1  5  1  0  0  0  0
  1 11  1  0  0  0  0
  2  3  1  0  0  0  0
  2  5  1  0  0  0  0
  2  9  1  0  0  0  0
  2 14  1  0  0  0  0
  3  6  1  0  0  0  0
  3  8  1  0  0  0  0
  3 15  1  0  0  0  0
  4  5  1  0  0  0  0
  4  6  1  0  0  0  0
  4  7  1  0  0  0  0
  4 16  1  0  0  0  0
  5 17  1  0  0  0  0
  6 18  1  0  0  0  0
  6 19  1  0  0  0  0
  7  8  1  0  0  0  0
  7 20  1  0  0  0  0
  7 21  1  0  0  0  0
  8 12  2  0  0  0  0
  9 10  1  0  0  0  0
  9 22  1  0  0  0  0
  9 23  1  0  0  0  0
 10 11  1  0  0  0  0
 10 24  1  0  0  0  0
 10 25  1  0  0  0  0
 11 26  1  0  0  0  0
 11 27  1  0  0  0  0
 12 13  1  0  0  0  0
 12 28  1  0  0  0  0
 13 29  1  0  0  0  0
 13 30  1  0  0  0  0
 13 31  1  0  0  0  0
M  END
> <PUBCHEM_COMPOUND_CID>
6441164

> <PUBCHEM_CONFORMER_RMSD>
0.4

> <PUBCHEM_CONFORMER_DIVERSEORDER>
2
4
3
8
7
1
5
6

> <PUBCHEM_MMFF94_PARTIAL_CHARGES>
9
1 -0.56
11 0.28
12 -0.29
13 0.14
28 0.15
3 0.14
5 0.28
7 0.14
8 -0.28

> <PUBCHEM_EFFECTIVE_ROTOR_COUNT>
1.2

> <PUBCHEM_PHARMACOPHORE_FEATURES>
4
1 1 acceptor
1 13 hydrophobe
6 1 2 5 9 10 11 rings
7 2 3 4 5 6 7 8 rings

> <PUBCHEM_HEAVY_ATOM_COUNT>
13

> <PUBCHEM_ATOM_DEF_STEREO_COUNT>
0

> <PUBCHEM_ATOM_UDEF_STEREO_COUNT>
4

> <PUBCHEM_BOND_DEF_STEREO_COUNT>
1

> <PUBCHEM_BOND_UDEF_STEREO_COUNT>
0

> <PUBCHEM_ISOTOPIC_ATOM_COUNT>
0

> <PUBCHEM_COMPONENT_COUNT>
1

> <PUBCHEM_CACTVS_TAUTO_COUNT>
1

> <PUBCHEM_CONFORMER_ID>
006248CC00000002

> <PUBCHEM_MMFF94_ENERGY>
42.0477

> <PUBCHEM_FEATURE_SELFOVERLAP>
20.318

> <PUBCHEM_SHAPE_FINGERPRINT>
10130415 120 18272655636051487419
10465860 71 18338250296868471654
11769659 78 18341890796715688350
12032990 46 18409171017110364219
12932764 1 17487623159035647559
13024252 1 15503527866630874256
13571099 22 18413669114678666511
14128692 85 18410577301050911004
14648413 74 18191023610839352717
14911166 2 18335412435824199479
15001771 113 18411147930437564536
15219456 202 18271236252729752264
16945 1 18260264127095286537
18186145 218 16225769627192427574
18511873 20 18342462504365733073
20201158 50 18341896272851946270
20653085 51 16805335391558107204
207724 885 18335145271488757625
21501502 16 18340494477183307045
22802520 49 18116160037320412203
23552423 10 18188772871766272270
23559900 14 18269829827703910282
2748010 2 18190452955872539685
369184 2 14979384038040398342
5084963 1 18340763831925832161
528886 8 18333446547303416880
7364860 26 18196932390722344984
81228 2 17415578527135452280

> <PUBCHEM_SHAPE_MULTIPOLES>
261.66
4.7
1.84
0.94
0.35
0.07
-0.23
2.29
1.09
0.28
-0.02
0.08
-0.15
0.08

> <PUBCHEM_SHAPE_SELFOVERLAP>
561.803

> <PUBCHEM_SHAPE_VOLUME>
149.4

> <PUBCHEM_COORDINATE_TYPE>
2
5
10

$$$$
