6441804
  -OEChem-11232109063D

 40 41  0     1  0  0  0  0  0999 V2000
   -2.0324    1.6546    0.4758 O   0  0  0  0  0  0  0  0  0  0  0  0
   -1.3043    0.6495   -0.2450 C   0  0  1  0  0  0  0  0  0  0  0  0
   -0.7335    1.3200    0.9867 C   0  0  1  0  0  0  0  0  0  0  0  0
   -1.9307   -0.7381   -0.2408 C   0  0  0  0  0  0  0  0  0  0  0  0
    0.2513    2.4453    0.8952 C   0  0  0  0  0  0  0  0  0  0  0  0
   -0.9148    1.1638   -1.5976 C   0  0  0  0  0  0  0  0  0  0  0  0
   -0.8178   -1.8305   -0.2846 C   0  0  0  0  0  0  0  0  0  0  0  0
   -2.8682   -0.9615    0.9726 C   0  0  0  0  0  0  0  0  0  0  0  0
   -2.8207   -0.9304   -1.4973 C   0  0  0  0  0  0  0  0  0  0  0  0
    1.6924    1.9605    0.7009 C   0  0  0  0  0  0  0  0  0  0  0  0
    0.0474   -1.9178    0.9434 C   0  0  0  0  0  0  0  0  0  0  0  0
    1.9380    1.4765   -0.6996 C   0  0  0  0  0  0  0  0  0  0  0  0
    1.3865   -1.9567    1.0073 C   0  0  0  0  0  0  0  0  0  0  0  0
    2.3728   -1.9834   -0.1236 C   0  0  0  0  0  0  0  0  0  0  0  0
    2.5415    0.3419   -1.0815 C   0  0  0  0  0  0  0  0  0  0  0  0
    3.1923   -0.6936   -0.2119 C   0  0  0  0  0  0  0  0  0  0  0  0
   -0.6770    0.7818    1.9219 H   0  0  0  0  0  0  0  0  0  0  0  0
    0.2090    2.9809    1.8529 H   0  0  0  0  0  0  0  0  0  0  0  0
   -0.0204    3.1937    0.1427 H   0  0  0  0  0  0  0  0  0  0  0  0
   -0.2093    0.4967   -2.0992 H   0  0  0  0  0  0  0  0  0  0  0  0
   -1.7935    1.2520   -2.2467 H   0  0  0  0  0  0  0  0  0  0  0  0
   -0.5124    2.1772   -1.5973 H   0  0  0  0  0  0  0  0  0  0  0  0
   -0.2035   -1.6806   -1.1786 H   0  0  0  0  0  0  0  0  0  0  0  0
   -1.2936   -2.8131   -0.4059 H   0  0  0  0  0  0  0  0  0  0  0  0
   -3.2485   -1.9895    0.9925 H   0  0  0  0  0  0  0  0  0  0  0  0
   -2.3748   -0.7740    1.9305 H   0  0  0  0  0  0  0  0  0  0  0  0
   -3.7361   -0.2926    0.9281 H   0  0  0  0  0  0  0  0  0  0  0  0
   -2.2352   -0.9552   -2.4229 H   0  0  0  0  0  0  0  0  0  0  0  0
   -3.3628   -1.8828   -1.4493 H   0  0  0  0  0  0  0  0  0  0  0  0
   -3.5679   -0.1329   -1.5835 H   0  0  0  0  0  0  0  0  0  0  0  0
    1.9229    1.1915    1.4447 H   0  0  0  0  0  0  0  0  0  0  0  0
    2.3699    2.8026    0.8861 H   0  0  0  0  0  0  0  0  0  0  0  0
   -0.4753   -1.9718    1.8959 H   0  0  0  0  0  0  0  0  0  0  0  0
    1.6449    2.1592   -1.4944 H   0  0  0  0  0  0  0  0  0  0  0  0
    1.8280   -2.0143    2.0016 H   0  0  0  0  0  0  0  0  0  0  0  0
    3.0599   -2.8160    0.0767 H   0  0  0  0  0  0  0  0  0  0  0  0
    1.8990   -2.2175   -1.0826 H   0  0  0  0  0  0  0  0  0  0  0  0
    2.6333    0.1682   -2.1528 H   0  0  0  0  0  0  0  0  0  0  0  0
    4.1615   -0.9292   -0.6709 H   0  0  0  0  0  0  0  0  0  0  0  0
    3.4280   -0.3030    0.7842 H   0  0  0  0  0  0  0  0  0  0  0  0
  1  2  1  0  0  0  0
  1  3  1  0  0  0  0
  2  3  1  0  0  0  0
  2  4  1  0  0  0  0
  2  6  1  0  0  0  0
  3  5  1  0  0  0  0
  3 17  1  0  0  0  0
  4  7  1  0  0  0  0
  4  8  1  0  0  0  0
  4  9  1  0  0  0  0
  5 10  1  0  0  0  0
  5 18  1  0  0  0  0
  5 19  1  0  0  0  0
  6 20  1  0  0  0  0
  6 21  1  0  0  0  0
  6 22  1  0  0  0  0
  7 11  1  0  0  0  0
  7 23  1  0  0  0  0
  7 24  1  0  0  0  0
  8 25  1  0  0  0  0
  8 26  1  0  0  0  0
  8 27  1  0  0  0  0
  9 28  1  0  0  0  0
  9 29  1  0  0  0  0
  9 30  1  0  0  0  0
 10 12  1  0  0  0  0
 10 31  1  0  0  0  0
 10 32  1  0  0  0  0
 11 13  2  0  0  0  0
 11 33  1  0  0  0  0
 12 15  2  0  0  0  0
 12 34  1  0  0  0  0
 13 14  1  0  0  0  0
 13 35  1  0  0  0  0
 14 16  1  0  0  0  0
 14 36  1  0  0  0  0
 14 37  1  0  0  0  0
 15 16  1  0  0  0  0
 15 38  1  0  0  0  0
 16 39  1  0  0  0  0
 16 40  1  0  0  0  0
M  END
> <PUBCHEM_COMPOUND_CID>
6441804

> <PUBCHEM_CONFORMER_RMSD>
0.6

> <PUBCHEM_CONFORMER_DIVERSEORDER>
3
4
2
1

> <PUBCHEM_MMFF94_PARTIAL_CHARGES>
19
1 -0.3
10 0.14
11 -0.29
12 -0.29
13 -0.29
14 0.14
15 -0.29
16 0.14
17 0.1
2 -0.04
3 -0.05
33 0.15
34 0.15
35 0.15
38 0.15
4 0.09
5 0.09
6 0.09
7 0.14

> <PUBCHEM_EFFECTIVE_ROTOR_COUNT>
1.4

> <PUBCHEM_PHARMACOPHORE_FEATURES>
2
1 1 acceptor
3 4 8 9 hydrophobe

> <PUBCHEM_HEAVY_ATOM_COUNT>
16

> <PUBCHEM_ATOM_DEF_STEREO_COUNT>
0

> <PUBCHEM_ATOM_UDEF_STEREO_COUNT>
2

> <PUBCHEM_BOND_DEF_STEREO_COUNT>
2

> <PUBCHEM_BOND_UDEF_STEREO_COUNT>
0

> <PUBCHEM_ISOTOPIC_ATOM_COUNT>
0

> <PUBCHEM_COMPONENT_COUNT>
1

> <PUBCHEM_CACTVS_TAUTO_COUNT>
1

> <PUBCHEM_CONFORMER_ID>
00624B4C00000003

> <PUBCHEM_MMFF94_ENERGY>
37.2126

> <PUBCHEM_FEATURE_SELFOVERLAP>
10.148

> <PUBCHEM_SHAPE_FINGERPRINT>
11321824 6 17983004557753847364
13299463 15 18186796980699187492
1420 336 18196098742028487570
14251711 518 17903638480019849674
144361 1 17967807245573862088
14817 1 13624686915324249736
15001771 113 18339924822780694320
15775835 57 18116165380454835894
15852999 172 17260156309234657385
16945 1 18269556215873074797
19868273 325 18198893726055547515
19930374 2 16538743722063579096
20201158 50 18053942028821810396
22721475 48 18264778825107917494
2334 1 18410575059067381082
23419403 2 16604269839138400096
23557571 272 17846203424316714762
23559900 14 17908435993751956340
2748010 2 18411127022341647344
2897 32 18335990757460278554
3323516 105 18121491625497502535
353137 74 18334295387655296386
5262128 65 18202292385485310966
63268167 104 18115870694264438414

> <PUBCHEM_SHAPE_MULTIPOLES>
323.4
4.27
2.85
1.37
0.35
0.16
-0.25
-1.12
-0.86
0.88
0.79
-0.39
0.16
-0.16

> <PUBCHEM_SHAPE_SELFOVERLAP>
646.576

> <PUBCHEM_SHAPE_VOLUME>
190.7

> <PUBCHEM_COORDINATE_TYPE>
2
5
10

$$$$
