6441136
  -OEChem-11232108443D

 29 28  0     1  0  0  0  0  0999 V2000
   -2.4598    1.8537    0.0353 O   0  0  0  0  0  0  0  0  0  0  0  0
    2.3675    0.1857   -0.6324 C   0  0  0  0  0  0  0  0  0  0  0  0
    1.1922   -0.3290    0.1905 C   0  0  0  0  0  0  0  0  0  0  0  0
   -1.1477   -1.3811    0.3776 C   0  0  0  0  0  0  0  0  0  0  0  0
   -2.4347   -0.5800    0.1188 C   0  0  2  0  0  0  0  0  0  0  0  0
    0.0671   -0.8523   -0.3393 C   0  0  0  0  0  0  0  0  0  0  0  0
    2.6121    1.6848   -0.4326 C   0  0  0  0  0  0  0  0  0  0  0  0
    3.6424   -0.6107   -0.3444 C   0  0  0  0  0  0  0  0  0  0  0  0
    1.3150   -0.2315    1.6927 C   0  0  0  0  0  0  0  0  0  0  0  0
   -2.8445   -0.5637   -1.3513 C   0  0  0  0  0  0  0  0  0  0  0  0
   -2.3096    0.8241    0.6852 C   0  0  0  0  0  0  0  0  0  0  0  0
    2.1319    0.0407   -1.6955 H   0  0  0  0  0  0  0  0  0  0  0  0
   -1.3026   -2.4158    0.0450 H   0  0  0  0  0  0  0  0  0  0  0  0
   -0.9778   -1.4452    1.4577 H   0  0  0  0  0  0  0  0  0  0  0  0
   -3.2452   -1.0581    0.6842 H   0  0  0  0  0  0  0  0  0  0  0  0
    0.0181   -0.9212   -1.4251 H   0  0  0  0  0  0  0  0  0  0  0  0
    2.9833    1.9171    0.5704 H   0  0  0  0  0  0  0  0  0  0  0  0
    1.6922    2.2568   -0.5961 H   0  0  0  0  0  0  0  0  0  0  0  0
    3.3592    2.0461   -1.1482 H   0  0  0  0  0  0  0  0  0  0  0  0
    3.9922   -0.4671    0.6835 H   0  0  0  0  0  0  0  0  0  0  0  0
    4.4497   -0.2979   -1.0157 H   0  0  0  0  0  0  0  0  0  0  0  0
    3.4782   -1.6829   -0.4990 H   0  0  0  0  0  0  0  0  0  0  0  0
    0.3984    0.1479    2.1546 H   0  0  0  0  0  0  0  0  0  0  0  0
    2.1094    0.4553    1.9974 H   0  0  0  0  0  0  0  0  0  0  0  0
    1.5542   -1.2126    2.1162 H   0  0  0  0  0  0  0  0  0  0  0  0
   -3.8248   -0.0883   -1.4694 H   0  0  0  0  0  0  0  0  0  0  0  0
   -2.1389    0.0009   -1.9697 H   0  0  0  0  0  0  0  0  0  0  0  0
   -2.9160   -1.5810   -1.7492 H   0  0  0  0  0  0  0  0  0  0  0  0
   -2.0881    0.8761    1.7656 H   0  0  0  0  0  0  0  0  0  0  0  0
  1 11  2  0  0  0  0
  2  3  1  0  0  0  0
  2  7  1  0  0  0  0
  2  8  1  0  0  0  0
  2 12  1  0  0  0  0
  3  6  2  0  0  0  0
  3  9  1  0  0  0  0
  4  5  1  0  0  0  0
  4  6  1  0  0  0  0
  4 13  1  0  0  0  0
  4 14  1  0  0  0  0
  5 10  1  0  0  0  0
  5 11  1  0  0  0  0
  5 15  1  0  0  0  0
  6 16  1  0  0  0  0
  7 17  1  0  0  0  0
  7 18  1  0  0  0  0
  7 19  1  0  0  0  0
  8 20  1  0  0  0  0
  8 21  1  0  0  0  0
  8 22  1  0  0  0  0
  9 23  1  0  0  0  0
  9 24  1  0  0  0  0
  9 25  1  0  0  0  0
 10 26  1  0  0  0  0
 10 27  1  0  0  0  0
 10 28  1  0  0  0  0
 11 29  1  0  0  0  0
M  END
> <PUBCHEM_COMPOUND_CID>
6441136

> <PUBCHEM_CONFORMER_RMSD>
0.6

> <PUBCHEM_CONFORMER_DIVERSEORDER>
9
19
45
49
71
33
70
34
16
39
31
58
67
20
65
59
18
51
23
62
63
27
4
60
6
44
46
17
72
22
24
13
11
69
10
37
61
57
43
41
42
55
36
56
3
1
68
5
28
2
7
64
8
32
30
50
66
53
15
26
52
47
40
14
38
12
25
29
21
54
48
35

> <PUBCHEM_MMFF94_PARTIAL_CHARGES>
10
1 -0.57
11 0.45
16 0.15
2 0.14
29 0.06
3 -0.28
4 0.14
5 0.06
6 -0.29
9 0.14

> <PUBCHEM_EFFECTIVE_ROTOR_COUNT>
4

> <PUBCHEM_PHARMACOPHORE_FEATURES>
4
1 1 acceptor
1 10 hydrophobe
1 9 hydrophobe
3 2 7 8 hydrophobe

> <PUBCHEM_HEAVY_ATOM_COUNT>
11

> <PUBCHEM_ATOM_DEF_STEREO_COUNT>
0

> <PUBCHEM_ATOM_UDEF_STEREO_COUNT>
1

> <PUBCHEM_BOND_DEF_STEREO_COUNT>
1

> <PUBCHEM_BOND_UDEF_STEREO_COUNT>
0

> <PUBCHEM_ISOTOPIC_ATOM_COUNT>
0

> <PUBCHEM_COMPONENT_COUNT>
1

> <PUBCHEM_CACTVS_TAUTO_COUNT>
2

> <PUBCHEM_CONFORMER_ID>
006248B000000009

> <PUBCHEM_MMFF94_ENERGY>
13.5309

> <PUBCHEM_FEATURE_SELFOVERLAP>
20.303

> <PUBCHEM_SHAPE_FINGERPRINT>
10922523 26 18130798802168029446
12162725 195 18411703209574023132
12382932 28 11963384129066916143
12491281 212 18261408753354893280
12897270 3 17489013938223740879
12932764 1 17346318227785210471
14144814 61 18333731308236187578
14390081 3 18334859458426142972
14445660 50 7925912599173578967
15775835 57 17968381147662512613
18186145 218 17749398078737699214
18342897 96 18341048498274272893
19973954 147 18264498445342761516
20645464 45 12901535828534281851
20653085 51 18336564766775171664
20711983 171 18272379667249444964
22802520 49 18272385177755613574
230 275 18114455773102221168
23402539 116 18342451569384571383
3248919 1 18409726291999438578
5084963 1 17917710227321377715
8030462 33 18340193138004243715
81228 2 16230015009107015106

> <PUBCHEM_SHAPE_MULTIPOLES>
220.51
5.63
1.52
1.18
1.15
0.67
0.22
0.75
-1.31
-0.27
-0.03
-0.1
-0.11
-0.41

> <PUBCHEM_SHAPE_SELFOVERLAP>
408.976

> <PUBCHEM_SHAPE_VOLUME>
139.3

> <PUBCHEM_COORDINATE_TYPE>
2
5
10

$$$$
