6441344
  -OEChem-11232109463D

 40 40  0     1  0  0  0  0  0999 V2000
   -3.8949    0.2700    0.7374 O   0  0  0  0  0  0  0  0  0  0  0  0
    1.8845    1.1328   -0.1185 C   0  0  0  0  0  0  0  0  0  0  0  0
    1.0245    0.0555    0.6079 C   0  0  2  0  0  0  0  0  0  0  0  0
    2.2778    0.6306   -1.5269 C   0  0  0  0  0  0  0  0  0  0  0  0
    2.9818   -0.7289   -1.5084 C   0  0  0  0  0  0  0  0  0  0  0  0
    1.5619   -1.3544    0.4705 C   0  0  0  0  0  0  0  0  0  0  0  0
    1.1226    2.4679   -0.2486 C   0  0  0  0  0  0  0  0  0  0  0  0
    3.1584    1.4187    0.7129 C   0  0  0  0  0  0  0  0  0  0  0  0
    2.4420   -1.6879   -0.4902 C   0  0  0  0  0  0  0  0  0  0  0  0
   -0.3856   -0.0096    0.0870 C   0  0  0  0  0  0  0  0  0  0  0  0
    1.0911   -2.3629    1.4814 C   0  0  0  0  0  0  0  0  0  0  0  0
   -1.5233    0.2061    0.7726 C   0  0  0  0  0  0  0  0  0  0  0  0
   -1.5976    0.5982    2.2225 C   0  0  0  0  0  0  0  0  0  0  0  0
   -2.8657    0.0704    0.0890 C   0  0  0  0  0  0  0  0  0  0  0  0
   -2.9256   -0.3125   -1.3838 C   0  0  0  0  0  0  0  0  0  0  0  0
   -4.3520   -0.3940   -1.9047 C   0  0  0  0  0  0  0  0  0  0  0  0
    1.0407    0.3037    1.6736 H   0  0  0  0  0  0  0  0  0  0  0  0
    2.9261    1.3610   -2.0280 H   0  0  0  0  0  0  0  0  0  0  0  0
    1.3817    0.5511   -2.1565 H   0  0  0  0  0  0  0  0  0  0  0  0
    4.0508   -0.5857   -1.3104 H   0  0  0  0  0  0  0  0  0  0  0  0
    2.9071   -1.1805   -2.5045 H   0  0  0  0  0  0  0  0  0  0  0  0
    1.7717    3.2494   -0.6610 H   0  0  0  0  0  0  0  0  0  0  0  0
    0.2596    2.3881   -0.9183 H   0  0  0  0  0  0  0  0  0  0  0  0
    0.7651    2.8161    0.7271 H   0  0  0  0  0  0  0  0  0  0  0  0
    3.8079    2.1377    0.2005 H   0  0  0  0  0  0  0  0  0  0  0  0
    2.9006    1.8453    1.6892 H   0  0  0  0  0  0  0  0  0  0  0  0
    3.7501    0.5172    0.8994 H   0  0  0  0  0  0  0  0  0  0  0  0
    2.8201   -2.7057   -0.5440 H   0  0  0  0  0  0  0  0  0  0  0  0
   -0.4509   -0.2813   -0.9641 H   0  0  0  0  0  0  0  0  0  0  0  0
    1.3101   -2.0141    2.4958 H   0  0  0  0  0  0  0  0  0  0  0  0
    1.5842   -3.3326    1.3543 H   0  0  0  0  0  0  0  0  0  0  0  0
    0.0130   -2.5294    1.3956 H   0  0  0  0  0  0  0  0  0  0  0  0
   -0.6292    0.8002    2.6820 H   0  0  0  0  0  0  0  0  0  0  0  0
   -2.1908    1.5124    2.3370 H   0  0  0  0  0  0  0  0  0  0  0  0
   -2.0763   -0.1982    2.8022 H   0  0  0  0  0  0  0  0  0  0  0  0
   -2.4496   -1.2902   -1.5140 H   0  0  0  0  0  0  0  0  0  0  0  0
   -2.3848    0.4406   -1.9667 H   0  0  0  0  0  0  0  0  0  0  0  0
   -4.9295   -1.1444   -1.3547 H   0  0  0  0  0  0  0  0  0  0  0  0
   -4.8648    0.5679   -1.8001 H   0  0  0  0  0  0  0  0  0  0  0  0
   -4.3552   -0.6695   -2.9638 H   0  0  0  0  0  0  0  0  0  0  0  0
  1 14  2  0  0  0  0
  2  3  1  0  0  0  0
  2  4  1  0  0  0  0
  2  7  1  0  0  0  0
  2  8  1  0  0  0  0
  3  6  1  0  0  0  0
  3 10  1  0  0  0  0
  3 17  1  0  0  0  0
  4  5  1  0  0  0  0
  4 18  1  0  0  0  0
  4 19  1  0  0  0  0
  5  9  1  0  0  0  0
  5 20  1  0  0  0  0
  5 21  1  0  0  0  0
  6  9  2  0  0  0  0
  6 11  1  0  0  0  0
  7 22  1  0  0  0  0
  7 23  1  0  0  0  0
  7 24  1  0  0  0  0
  8 25  1  0  0  0  0
  8 26  1  0  0  0  0
  8 27  1  0  0  0  0
  9 28  1  0  0  0  0
 10 12  2  0  0  0  0
 10 29  1  0  0  0  0
 11 30  1  0  0  0  0
 11 31  1  0  0  0  0
 11 32  1  0  0  0  0
 12 13  1  0  0  0  0
 12 14  1  0  0  0  0
 13 33  1  0  0  0  0
 13 34  1  0  0  0  0
 13 35  1  0  0  0  0
 14 15  1  0  0  0  0
 15 16  1  0  0  0  0
 15 36  1  0  0  0  0
 15 37  1  0  0  0  0
 16 38  1  0  0  0  0
 16 39  1  0  0  0  0
 16 40  1  0  0  0  0
M  END
> <PUBCHEM_COMPOUND_CID>
6441344

> <PUBCHEM_CONFORMER_RMSD>
0.6

> <PUBCHEM_CONFORMER_DIVERSEORDER>
7
25
24
31
21
10
19
32
4
15
23
29
22
9
28
26
27
18
11
16
5
8
12
3
14
20
30
13
17
2
1
6

> <PUBCHEM_MMFF94_PARTIAL_CHARGES>
13
1 -0.57
10 -0.29
11 0.14
12 -0.12
13 0.14
14 0.49
15 0.06
28 0.15
29 0.15
3 0.28
5 0.14
6 -0.28
9 -0.29

> <PUBCHEM_EFFECTIVE_ROTOR_COUNT>
3.8

> <PUBCHEM_PHARMACOPHORE_FEATURES>
5
1 1 acceptor
1 13 hydrophobe
1 16 hydrophobe
3 2 7 8 hydrophobe
6 2 3 4 5 6 9 rings

> <PUBCHEM_HEAVY_ATOM_COUNT>
16

> <PUBCHEM_ATOM_DEF_STEREO_COUNT>
0

> <PUBCHEM_ATOM_UDEF_STEREO_COUNT>
1

> <PUBCHEM_BOND_DEF_STEREO_COUNT>
1

> <PUBCHEM_BOND_UDEF_STEREO_COUNT>
0

> <PUBCHEM_ISOTOPIC_ATOM_COUNT>
0

> <PUBCHEM_COMPONENT_COUNT>
1

> <PUBCHEM_CACTVS_TAUTO_COUNT>
5

> <PUBCHEM_CONFORMER_ID>
0062498000000007

> <PUBCHEM_MMFF94_ENERGY>
28.0544

> <PUBCHEM_FEATURE_SELFOVERLAP>
25.373

> <PUBCHEM_SHAPE_FINGERPRINT>
10498660 4 15068619358279595519
10764073 3 16162366173313477600
11578080 2 17842531008008664457
12400797 292 18201154472312114039
12654215 9 17748819696629153820
12932764 1 18341615880438855681
13134695 92 17605810595876263242
14115302 16 16199605566793193067
15852999 172 18265612272418165250
16752209 62 17273699746179789713
16945 1 18267325212760554744
18186145 218 18335139791390036731
18522853 266 16486983851593244293
18915474 69 17561078155079997671
20233049 118 15864066581237715484
20361792 2 18269561545885297639
20600515 1 16199579161592805459
20645477 70 18412255126067989911
21639500 275 18334016124539159929
21947302 44 16877933898146210855
22112679 90 17983306932331551402
23419403 2 13609726037026094210
23526113 38 16806464499694977963
23557571 272 16558741291720385331
23559900 14 15985110673588266504
23598291 2 18201440233998625285
238 59 18186519925397039143
25 1 17968108498801299834
251288 83 12750653219504097045
2748010 2 17905637710419002504
3060560 45 18261662757499356414
474 4 18128259080706095000
633830 44 18338535108655261509
77492 1 18060708264475721745
81228 2 16454866867727366226
88987 49 15140685799586025915

> <PUBCHEM_SHAPE_MULTIPOLES>
323.4
6.4
1.97
1.86
6.49
0.13
-0.02
0
-2.82
-2.01
0.42
0.93
0.2
-0.31

> <PUBCHEM_SHAPE_SELFOVERLAP>
643.387

> <PUBCHEM_SHAPE_VOLUME>
191.9

> <PUBCHEM_COORDINATE_TYPE>
2
5
10

$$$$
