6442642
  -OEChem-11232109103D

 25 24  0     0  0  0  0  0  0999 V2000
    5.7595   -0.0320    0.0222 O   0  0  0  0  0  0  0  0  0  0  0  0
   -4.2205   -0.2114   -0.8100 C   0  0  0  0  0  0  0  0  0  0  0  0
   -1.5284   -0.2804    0.5351 C   0  0  0  0  0  0  0  0  0  0  0  0
   -3.5873    0.9776   -0.1502 C   0  0  0  0  0  0  0  0  0  0  0  0
   -2.3876    0.9473    0.4493 C   0  0  0  0  0  0  0  0  0  0  0  0
   -5.0751   -0.9998    0.1701 C   0  0  0  0  0  0  0  0  0  0  0  0
   -0.2224   -0.0926   -0.1822 C   0  0  0  0  0  0  0  0  0  0  0  0
    0.9748   -0.2011    0.4138 C   0  0  0  0  0  0  0  0  0  0  0  0
    2.2269   -0.0265   -0.2879 C   0  0  0  0  0  0  0  0  0  0  0  0
    3.4157   -0.1373    0.3172 C   0  0  0  0  0  0  0  0  0  0  0  0
    4.6444    0.0563   -0.4775 C   0  0  0  0  0  0  0  0  0  0  0  0
   -3.4876   -0.8631   -1.2954 H   0  0  0  0  0  0  0  0  0  0  0  0
   -4.8595    0.1554   -1.6230 H   0  0  0  0  0  0  0  0  0  0  0  0
   -1.3529   -0.4843    1.5993 H   0  0  0  0  0  0  0  0  0  0  0  0
   -2.0063   -1.1814    0.1427 H   0  0  0  0  0  0  0  0  0  0  0  0
   -4.1510    1.9068   -0.1467 H   0  0  0  0  0  0  0  0  0  0  0  0
   -2.0156    1.8563    0.9156 H   0  0  0  0  0  0  0  0  0  0  0  0
   -5.8545   -0.3702    0.6130 H   0  0  0  0  0  0  0  0  0  0  0  0
   -4.4712   -1.4167    0.9828 H   0  0  0  0  0  0  0  0  0  0  0  0
   -5.5671   -1.8317   -0.3441 H   0  0  0  0  0  0  0  0  0  0  0  0
   -0.2779    0.1226   -1.2476 H   0  0  0  0  0  0  0  0  0  0  0  0
    1.0264   -0.4277    1.4759 H   0  0  0  0  0  0  0  0  0  0  0  0
    2.1704    0.2029   -1.3493 H   0  0  0  0  0  0  0  0  0  0  0  0
    3.5237   -0.3643    1.3717 H   0  0  0  0  0  0  0  0  0  0  0  0
    4.5043    0.2857   -1.5470 H   0  0  0  0  0  0  0  0  0  0  0  0
  1 11  2  0  0  0  0
  2  4  1  0  0  0  0
  2  6  1  0  0  0  0
  2 12  1  0  0  0  0
  2 13  1  0  0  0  0
  3  5  1  0  0  0  0
  3  7  1  0  0  0  0
  3 14  1  0  0  0  0
  3 15  1  0  0  0  0
  4  5  2  0  0  0  0
  4 16  1  0  0  0  0
  5 17  1  0  0  0  0
  6 18  1  0  0  0  0
  6 19  1  0  0  0  0
  6 20  1  0  0  0  0
  7  8  2  0  0  0  0
  7 21  1  0  0  0  0
  8  9  1  0  0  0  0
  8 22  1  0  0  0  0
  9 10  2  0  0  0  0
  9 23  1  0  0  0  0
 10 11  1  0  0  0  0
 10 24  1  0  0  0  0
 11 25  1  0  0  0  0
M  END
> <PUBCHEM_COMPOUND_CID>
6442642

> <PUBCHEM_CONFORMER_RMSD>
0.6

> <PUBCHEM_CONFORMER_DIVERSEORDER>
1
55
13
38
14
66
74
21
62
49
7
77
18
57
5
71
43
36
9
72
48
75
40
44
70
73
53
6
2
69
10
29
15
67
63
68
42
31
12
30
76
20
24
4
35
54
50
17
37
23
59
3
58
27
16
47
46
28
34
8
26
65
32
33
22
45
39
64
51
19
61
25
60
11
52
56
41

> <PUBCHEM_MMFF94_PARTIAL_CHARGES>
17
1 -0.57
10 -0.14
11 0.5
16 0.15
17 0.15
2 0.14
21 0.15
22 0.15
23 0.15
24 0.15
25 0.06
3 0.28
4 -0.29
5 -0.29
7 -0.29
8 -0.15
9 -0.15

> <PUBCHEM_EFFECTIVE_ROTOR_COUNT>
5

> <PUBCHEM_PHARMACOPHORE_FEATURES>
2
1 1 acceptor
1 6 hydrophobe

> <PUBCHEM_HEAVY_ATOM_COUNT>
11

> <PUBCHEM_ATOM_DEF_STEREO_COUNT>
0

> <PUBCHEM_ATOM_UDEF_STEREO_COUNT>
0

> <PUBCHEM_BOND_DEF_STEREO_COUNT>
3

> <PUBCHEM_BOND_UDEF_STEREO_COUNT>
0

> <PUBCHEM_ISOTOPIC_ATOM_COUNT>
0

> <PUBCHEM_COMPONENT_COUNT>
1

> <PUBCHEM_CACTVS_TAUTO_COUNT>
1

> <PUBCHEM_CONFORMER_ID>
00624E9200000001

> <PUBCHEM_MMFF94_ENERGY>
5.6334

> <PUBCHEM_FEATURE_SELFOVERLAP>
10.148

> <PUBCHEM_SHAPE_FINGERPRINT>
10680689 15 16917344827597874777
11062470 55 13839985503820514969
11287383 113 17632293510320787704
11401426 45 14634869755761788523
114248 4 18060419118740135248
124424 183 13767930122023028093
14123238 8 18412545409763804166
1420 363 18202568392641638087
14251718 22 18408041831558607022
17834072 33 18187367670384058302
17834076 25 12829205577013518935
18342897 14 11458425738978096166
20279233 1 14418137287848642697
20645477 70 18269276777434257302
20719005 15 18343021090627048352
20767249 13 15574713599366121092
20767249 213 13695588858406773183
20828058 44 9151166558555925872
23402539 116 18408038498780153525
23402655 69 18335413513908690741
23557571 272 17845941740575638777
23590187 156 18335416889599796648
42788 4 18333450941450560588
57483677 66 18272931600954831726
59345606 84 18412825815557655527

> <PUBCHEM_SHAPE_MULTIPOLES>
220.51
12.47
0.89
0.78
7.12
0.07
-0.03
-1.29
-1.42
-1.01
0.04
-0.23
-0.01
-0.04

> <PUBCHEM_SHAPE_SELFOVERLAP>
411.205

> <PUBCHEM_SHAPE_VOLUME>
136.8

> <PUBCHEM_COORDINATE_TYPE>
2
5
10

$$$$
