644216
  -OEChem-11232109233D

 20 19  0     1  0  0  0  0  0999 V2000
   -1.1442    0.0247   -0.7544 O   0  0  0  0  0  0  0  0  0  0  0  0
   -1.0525   -0.3615    1.5181 O   0  0  0  0  0  0  0  0  0  0  0  0
    0.8492    0.6162    0.3583 C   0  0  1  0  0  0  0  0  0  0  0  0
    1.7386   -0.2204   -0.5728 C   0  0  0  0  0  0  0  0  0  0  0  0
    0.7248    2.0494   -0.1513 C   0  0  0  0  0  0  0  0  0  0  0  0
    1.9124   -1.6526   -0.0836 C   0  0  0  0  0  0  0  0  0  0  0  0
   -0.5462    0.0265    0.4731 C   0  0  0  0  0  0  0  0  0  0  0  0
   -2.4821   -0.4824   -0.7873 C   0  0  0  0  0  0  0  0  0  0  0  0
    1.2853    0.6343    1.3646 H   0  0  0  0  0  0  0  0  0  0  0  0
    1.3275   -0.2426   -1.5893 H   0  0  0  0  0  0  0  0  0  0  0  0
    2.7279    0.2481   -0.6423 H   0  0  0  0  0  0  0  0  0  0  0  0
    0.0356    2.6286    0.4732 H   0  0  0  0  0  0  0  0  0  0  0  0
    1.6989    2.5496   -0.1299 H   0  0  0  0  0  0  0  0  0  0  0  0
    0.3528    2.0902   -1.1810 H   0  0  0  0  0  0  0  0  0  0  0  0
    2.3187   -1.6732    0.9326 H   0  0  0  0  0  0  0  0  0  0  0  0
    2.6074   -2.1901   -0.7367 H   0  0  0  0  0  0  0  0  0  0  0  0
    0.9633   -2.1974   -0.0880 H   0  0  0  0  0  0  0  0  0  0  0  0
   -3.1342    0.1285   -0.1559 H   0  0  0  0  0  0  0  0  0  0  0  0
   -2.4986   -1.5276   -0.4644 H   0  0  0  0  0  0  0  0  0  0  0  0
   -2.8408   -0.4280   -1.8185 H   0  0  0  0  0  0  0  0  0  0  0  0
  1  7  1  0  0  0  0
  1  8  1  0  0  0  0
  2  7  2  0  0  0  0
  3  4  1  0  0  0  0
  3  5  1  0  0  0  0
  3  7  1  0  0  0  0
  3  9  1  0  0  0  0
  4  6  1  0  0  0  0
  4 10  1  0  0  0  0
  4 11  1  0  0  0  0
  5 12  1  0  0  0  0
  5 13  1  0  0  0  0
  5 14  1  0  0  0  0
  6 15  1  0  0  0  0
  6 16  1  0  0  0  0
  6 17  1  0  0  0  0
  8 18  1  0  0  0  0
  8 19  1  0  0  0  0
  8 20  1  0  0  0  0
M  END
> <PUBCHEM_COMPOUND_CID>
644216

> <PUBCHEM_CONFORMER_RMSD>
0.6

> <PUBCHEM_CONFORMER_DIVERSEORDER>
1
2
6
9
4
3
5
8
7

> <PUBCHEM_MMFF94_PARTIAL_CHARGES>
5
1 -0.43
2 -0.57
3 0.06
7 0.66
8 0.28

> <PUBCHEM_EFFECTIVE_ROTOR_COUNT>
3

> <PUBCHEM_PHARMACOPHORE_FEATURES>
3
1 2 acceptor
1 5 hydrophobe
1 6 hydrophobe

> <PUBCHEM_HEAVY_ATOM_COUNT>
8

> <PUBCHEM_ATOM_DEF_STEREO_COUNT>
1

> <PUBCHEM_ATOM_UDEF_STEREO_COUNT>
0

> <PUBCHEM_BOND_DEF_STEREO_COUNT>
0

> <PUBCHEM_BOND_UDEF_STEREO_COUNT>
0

> <PUBCHEM_ISOTOPIC_ATOM_COUNT>
0

> <PUBCHEM_COMPONENT_COUNT>
1

> <PUBCHEM_CACTVS_TAUTO_COUNT>
1

> <PUBCHEM_CONFORMER_ID>
0009D47800000001

> <PUBCHEM_MMFF94_ENERGY>
7.9822

> <PUBCHEM_FEATURE_SELFOVERLAP>
15.223

> <PUBCHEM_SHAPE_FINGERPRINT>
137420 1 13103019362902661392
14128692 85 17846206812781732239
18185500 45 18060138738795702862
20096714 4 11963392929391647534
20711978 78 18120967089240492147
21040471 1 17548124988744748956
23552333 60 17702944863045958419
23552423 10 18272083963309657823
23552449 11 17917412246764093618
24536 1 18189060939518016305
29004967 10 18410573993894386122
5943 1 15382092527880802784

> <PUBCHEM_SHAPE_MULTIPOLES>
152.9
2.76
1.63
1.05
1.01
0.56
-0.27
-1.22
0.72
-0.98
0.14
0.4
-0.1
-0.06

> <PUBCHEM_SHAPE_SELFOVERLAP>
278.7

> <PUBCHEM_SHAPE_VOLUME>
98.8

> <PUBCHEM_COORDINATE_TYPE>
2
5
10

$$$$
