6450452
  -OEChem-11232109093D

 49 48  0     0  0  0  0  0  0999 V2000
   -0.4962    2.5183    0.5544 O   0  0  0  0  0  0  0  0  0  0  0  0
   -0.0106    1.0870   -1.1880 O   0  0  0  0  0  0  0  0  0  0  0  0
    3.9978    0.5754    0.4722 C   0  0  0  0  0  0  0  0  0  0  0  0
    4.9628   -0.3233   -0.3037 C   0  0  0  0  0  0  0  0  0  0  0  0
    2.6445    0.6802   -0.2377 C   0  0  0  0  0  0  0  0  0  0  0  0
    6.3043   -0.4521    0.4176 C   0  0  0  0  0  0  0  0  0  0  0  0
    1.6489    1.5504    0.5292 C   0  0  0  0  0  0  0  0  0  0  0  0
    7.2775   -1.3179   -0.3665 C   0  0  0  0  0  0  0  0  0  0  0  0
   -4.4440   -0.1392    0.5813 C   0  0  0  0  0  0  0  0  0  0  0  0
    0.3028    1.6582   -0.1528 C   0  0  0  0  0  0  0  0  0  0  0  0
   -3.4872    0.8358   -0.0724 C   0  0  0  0  0  0  0  0  0  0  0  0
   -4.1007   -1.6115    0.3197 C   0  0  0  0  0  0  0  0  0  0  0  0
   -1.7918    2.7461    0.0161 C   0  0  0  0  0  0  0  0  0  0  0  0
   -2.7311    1.7334    0.5895 C   0  0  0  0  0  0  0  0  0  0  0  0
   -2.7303   -1.9824    0.8152 C   0  0  0  0  0  0  0  0  0  0  0  0
   -3.4415    0.7764   -1.5780 C   0  0  0  0  0  0  0  0  0  0  0  0
   -1.7238   -2.5530    0.1266 C   0  0  0  0  0  0  0  0  0  0  0  0
   -1.7663   -2.9233   -1.3287 C   0  0  0  0  0  0  0  0  0  0  0  0
   -0.4152   -2.8583    0.8060 C   0  0  0  0  0  0  0  0  0  0  0  0
    4.4324    1.5761    0.5834 H   0  0  0  0  0  0  0  0  0  0  0  0
    3.8503    0.1718    1.4813 H   0  0  0  0  0  0  0  0  0  0  0  0
    4.5188   -1.3181   -0.4311 H   0  0  0  0  0  0  0  0  0  0  0  0
    5.1217    0.0905   -1.3070 H   0  0  0  0  0  0  0  0  0  0  0  0
    2.7888    1.0918   -1.2447 H   0  0  0  0  0  0  0  0  0  0  0  0
    2.2216   -0.3238   -0.3698 H   0  0  0  0  0  0  0  0  0  0  0  0
    6.1524   -0.8892    1.4113 H   0  0  0  0  0  0  0  0  0  0  0  0
    6.7454    0.5407    0.5637 H   0  0  0  0  0  0  0  0  0  0  0  0
    1.4862    1.1291    1.5278 H   0  0  0  0  0  0  0  0  0  0  0  0
    2.0580    2.5618    0.6341 H   0  0  0  0  0  0  0  0  0  0  0  0
    7.4769   -0.8891   -1.3537 H   0  0  0  0  0  0  0  0  0  0  0  0
    6.8800   -2.3285   -0.5044 H   0  0  0  0  0  0  0  0  0  0  0  0
    8.2295   -1.3973    0.1679 H   0  0  0  0  0  0  0  0  0  0  0  0
   -4.4702    0.0352    1.6651 H   0  0  0  0  0  0  0  0  0  0  0  0
   -5.4601    0.0629    0.2198 H   0  0  0  0  0  0  0  0  0  0  0  0
   -4.2392   -1.8346   -0.7410 H   0  0  0  0  0  0  0  0  0  0  0  0
   -4.8294   -2.2338    0.8544 H   0  0  0  0  0  0  0  0  0  0  0  0
   -1.7577    2.7883   -1.0751 H   0  0  0  0  0  0  0  0  0  0  0  0
   -2.1086    3.7409    0.3483 H   0  0  0  0  0  0  0  0  0  0  0  0
   -2.8069    1.7475    1.6761 H   0  0  0  0  0  0  0  0  0  0  0  0
   -2.5671   -1.7710    1.8717 H   0  0  0  0  0  0  0  0  0  0  0  0
   -2.6794    0.0655   -1.9107 H   0  0  0  0  0  0  0  0  0  0  0  0
   -3.2537    1.7455   -2.0463 H   0  0  0  0  0  0  0  0  0  0  0  0
   -4.4077    0.4443   -1.9752 H   0  0  0  0  0  0  0  0  0  0  0  0
   -0.9953   -2.3716   -1.8771 H   0  0  0  0  0  0  0  0  0  0  0  0
   -1.5716   -3.9946   -1.4479 H   0  0  0  0  0  0  0  0  0  0  0  0
   -2.7213   -2.7137   -1.8127 H   0  0  0  0  0  0  0  0  0  0  0  0
   -0.2024   -3.9311    0.7544 H   0  0  0  0  0  0  0  0  0  0  0  0
    0.4009   -2.3172    0.3156 H   0  0  0  0  0  0  0  0  0  0  0  0
   -0.4151   -2.5702    1.8625 H   0  0  0  0  0  0  0  0  0  0  0  0
  1 10  1  0  0  0  0
  1 13  1  0  0  0  0
  2 10  2  0  0  0  0
  3  4  1  0  0  0  0
  3  5  1  0  0  0  0
  3 20  1  0  0  0  0
  3 21  1  0  0  0  0
  4  6  1  0  0  0  0
  4 22  1  0  0  0  0
  4 23  1  0  0  0  0
  5  7  1  0  0  0  0
  5 24  1  0  0  0  0
  5 25  1  0  0  0  0
  6  8  1  0  0  0  0
  6 26  1  0  0  0  0
  6 27  1  0  0  0  0
  7 10  1  0  0  0  0
  7 28  1  0  0  0  0
  7 29  1  0  0  0  0
  8 30  1  0  0  0  0
  8 31  1  0  0  0  0
  8 32  1  0  0  0  0
  9 11  1  0  0  0  0
  9 12  1  0  0  0  0
  9 33  1  0  0  0  0
  9 34  1  0  0  0  0
 11 14  2  0  0  0  0
 11 16  1  0  0  0  0
 12 15  1  0  0  0  0
 12 35  1  0  0  0  0
 12 36  1  0  0  0  0
 13 14  1  0  0  0  0
 13 37  1  0  0  0  0
 13 38  1  0  0  0  0
 14 39  1  0  0  0  0
 15 17  2  0  0  0  0
 15 40  1  0  0  0  0
 16 41  1  0  0  0  0
 16 42  1  0  0  0  0
 16 43  1  0  0  0  0
 17 18  1  0  0  0  0
 17 19  1  0  0  0  0
 18 44  1  0  0  0  0
 18 45  1  0  0  0  0
 18 46  1  0  0  0  0
 19 47  1  0  0  0  0
 19 48  1  0  0  0  0
 19 49  1  0  0  0  0
M  END
> <PUBCHEM_COMPOUND_CID>
6450452

> <PUBCHEM_CONFORMER_RMSD>
1.2

> <PUBCHEM_CONFORMER_DIVERSEORDER>
1
106
30
9
35
65
10
110
72
80
98
59
49
68
57
44
32
105
31
107
6
85
128
26
114
97
22
91
3
33
23
95
119
117
14
88
77
27
96
94
50
81
61
100
78
40
124
120
42
89
69
121
99
76
87
109
60
13
62
41
48
43
103
52
7
86
82
101
38
118
53
4
20
102
73
19
75
47
29
122
115
46
21
90
83
64
112
111
16
51
56
17
12
93
116
5
25
113
108
55
123
39
45
84
67
74
18
92
66
125
104
2
34
36
15
63
79
58
24
71
37
70
54
11
126
28
127
8

> <PUBCHEM_MMFF94_PARTIAL_CHARGES>
16
1 -0.43
10 0.66
11 -0.28
12 0.14
13 0.42
14 -0.29
15 -0.29
16 0.14
17 -0.28
18 0.14
19 0.14
2 -0.57
39 0.15
40 0.15
7 0.06
9 0.14

> <PUBCHEM_EFFECTIVE_ROTOR_COUNT>
11

> <PUBCHEM_PHARMACOPHORE_FEATURES>
6
1 16 hydrophobe
1 2 acceptor
1 8 hydrophobe
3 17 18 19 hydrophobe
4 9 11 12 15 hydrophobe
5 3 4 5 6 7 hydrophobe

> <PUBCHEM_HEAVY_ATOM_COUNT>
19

> <PUBCHEM_ATOM_DEF_STEREO_COUNT>
0

> <PUBCHEM_ATOM_UDEF_STEREO_COUNT>
0

> <PUBCHEM_BOND_DEF_STEREO_COUNT>
1

> <PUBCHEM_BOND_UDEF_STEREO_COUNT>
0

> <PUBCHEM_ISOTOPIC_ATOM_COUNT>
0

> <PUBCHEM_COMPONENT_COUNT>
1

> <PUBCHEM_CACTVS_TAUTO_COUNT>
1

> <PUBCHEM_CONFORMER_ID>
00626D1400000001

> <PUBCHEM_MMFF94_ENERGY>
10.1779

> <PUBCHEM_FEATURE_SELFOVERLAP>
30.469

> <PUBCHEM_SHAPE_FINGERPRINT>
10803635 8 18040708134986921220
11458722 379 18335138708710209787
11524674 6 17775000155076472342
11756154 5 17823987929253073618
13402501 40 18342742896984649238
14251740 79 18409450280315918602
14251751 18 18410858776686965640
14251751 93 18114174250754016363
14251757 5 18189913087263576582
14461889 52 18271516569146331848
15322534 239 18187366528250585274
16719943 64 18335139787190755978
20621476 51 17914327128869592606
21403212 168 18129394730958560353
23466295 7 17896613971013434651
23559900 14 18339636845414103544
445580 160 18342746183278202694
559249 180 18334293137060648384
56633871 153 18124606533407398107
57583515 115 18411420626506377395
6138700 20 18410291432992822827
6437827 68 18338235951994648946

> <PUBCHEM_SHAPE_MULTIPOLES>
379.27
12.99
3.59
1.07
29.42
1.23
0.31
4.7
0.06
-3.14
-0.13
-0.69
0.21
0.4

> <PUBCHEM_SHAPE_SELFOVERLAP>
710.786

> <PUBCHEM_SHAPE_VOLUME>
237

> <PUBCHEM_COORDINATE_TYPE>
2
5
10

$$$$
