6450542
  -OEChem-11232108513D

 44 44  0     1  0  0  0  0  0999 V2000
    3.1311   -0.2895   -0.4479 O   0  0  0  0  0  0  0  0  0  0  0  0
    1.7186   -2.0328    0.1027 O   0  0  0  0  0  0  0  0  0  0  0  0
   -2.3006   -0.9042    0.6178 C   0  0  0  0  0  0  0  0  0  0  0  0
   -3.8058   -0.6183    0.3621 C   0  0  0  0  0  0  0  0  0  0  0  0
   -1.4206    0.3174    0.2621 C   0  0  0  0  0  0  0  0  0  0  0  0
   -4.0408    0.0797   -0.9654 C   0  0  0  0  0  0  0  0  0  0  0  0
   -3.3126    1.4151   -0.9882 C   0  0  0  0  0  0  0  0  0  0  0  0
   -1.8991    1.3730   -0.4434 C   0  0  0  0  0  0  0  0  0  0  0  0
   -1.8676   -2.1188   -0.2351 C   0  0  0  0  0  0  0  0  0  0  0  0
   -2.1876   -1.2879    2.1136 C   0  0  0  0  0  0  0  0  0  0  0  0
   -0.0394    0.2493    0.7104 C   0  0  0  0  0  0  0  0  0  0  0  0
   -1.1286    2.6267   -0.7880 C   0  0  0  0  0  0  0  0  0  0  0  0
    0.9824    0.6504   -0.0408 C   0  0  0  0  0  0  0  0  0  0  0  0
    2.4108    0.5802    0.4237 C   0  0  2  0  0  0  0  0  0  0  0  0
    3.0635    1.9661    0.3947 C   0  0  0  0  0  0  0  0  0  0  0  0
    4.5034    1.9350    0.8917 C   0  0  0  0  0  0  0  0  0  0  0  0
    2.6729   -1.5743   -0.5108 C   0  0  0  0  0  0  0  0  0  0  0  0
    3.5200   -2.3671   -1.4593 C   0  0  0  0  0  0  0  0  0  0  0  0
   -4.2083    0.0159    1.1645 H   0  0  0  0  0  0  0  0  0  0  0  0
   -4.3842   -1.5505    0.3906 H   0  0  0  0  0  0  0  0  0  0  0  0
   -5.1137    0.2441   -1.1184 H   0  0  0  0  0  0  0  0  0  0  0  0
   -3.7000   -0.5495   -1.7957 H   0  0  0  0  0  0  0  0  0  0  0  0
   -3.8839    2.1468   -0.4023 H   0  0  0  0  0  0  0  0  0  0  0  0
   -3.2990    1.7772   -2.0238 H   0  0  0  0  0  0  0  0  0  0  0  0
   -1.8615   -1.8848   -1.3052 H   0  0  0  0  0  0  0  0  0  0  0  0
   -0.8620   -2.4592    0.0311 H   0  0  0  0  0  0  0  0  0  0  0  0
   -2.5427   -2.9687   -0.0828 H   0  0  0  0  0  0  0  0  0  0  0  0
   -2.9319   -2.0486    2.3787 H   0  0  0  0  0  0  0  0  0  0  0  0
   -1.2091   -1.7135    2.3612 H   0  0  0  0  0  0  0  0  0  0  0  0
   -2.3556   -0.4199    2.7617 H   0  0  0  0  0  0  0  0  0  0  0  0
    0.1494   -0.1065    1.7174 H   0  0  0  0  0  0  0  0  0  0  0  0
   -0.7208    2.5634   -1.8015 H   0  0  0  0  0  0  0  0  0  0  0  0
   -0.3312    2.8600   -0.0779 H   0  0  0  0  0  0  0  0  0  0  0  0
   -1.7974    3.4955   -0.7561 H   0  0  0  0  0  0  0  0  0  0  0  0
    0.8420    0.9753   -1.0680 H   0  0  0  0  0  0  0  0  0  0  0  0
    2.4806    0.1834    1.4455 H   0  0  0  0  0  0  0  0  0  0  0  0
    3.0677    2.3587   -0.6302 H   0  0  0  0  0  0  0  0  0  0  0  0
    2.4879    2.6662    1.0123 H   0  0  0  0  0  0  0  0  0  0  0  0
    5.1314    1.3022    0.2569 H   0  0  0  0  0  0  0  0  0  0  0  0
    4.9266    2.9445    0.8829 H   0  0  0  0  0  0  0  0  0  0  0  0
    4.5552    1.5546    1.9169 H   0  0  0  0  0  0  0  0  0  0  0  0
    4.5543   -2.3842   -1.1068 H   0  0  0  0  0  0  0  0  0  0  0  0
    3.4609   -1.9326   -2.4604 H   0  0  0  0  0  0  0  0  0  0  0  0
    3.1499   -3.3954   -1.5033 H   0  0  0  0  0  0  0  0  0  0  0  0
  1 14  1  0  0  0  0
  1 17  1  0  0  0  0
  2 17  2  0  0  0  0
  3  4  1  0  0  0  0
  3  5  1  0  0  0  0
  3  9  1  0  0  0  0
  3 10  1  0  0  0  0
  4  6  1  0  0  0  0
  4 19  1  0  0  0  0
  4 20  1  0  0  0  0
  5  8  2  0  0  0  0
  5 11  1  0  0  0  0
  6  7  1  0  0  0  0
  6 21  1  0  0  0  0
  6 22  1  0  0  0  0
  7  8  1  0  0  0  0
  7 23  1  0  0  0  0
  7 24  1  0  0  0  0
  8 12  1  0  0  0  0
  9 25  1  0  0  0  0
  9 26  1  0  0  0  0
  9 27  1  0  0  0  0
 10 28  1  0  0  0  0
 10 29  1  0  0  0  0
 10 30  1  0  0  0  0
 11 13  2  0  0  0  0
 11 31  1  0  0  0  0
 12 32  1  0  0  0  0
 12 33  1  0  0  0  0
 12 34  1  0  0  0  0
 13 14  1  0  0  0  0
 13 35  1  0  0  0  0
 14 15  1  0  0  0  0
 14 36  1  0  0  0  0
 15 16  1  0  0  0  0
 15 37  1  0  0  0  0
 15 38  1  0  0  0  0
 16 39  1  0  0  0  0
 16 40  1  0  0  0  0
 16 41  1  0  0  0  0
 17 18  1  0  0  0  0
 18 42  1  0  0  0  0
 18 43  1  0  0  0  0
 18 44  1  0  0  0  0
M  END
> <PUBCHEM_COMPOUND_CID>
6450542

> <PUBCHEM_CONFORMER_RMSD>
0.8

> <PUBCHEM_CONFORMER_DIVERSEORDER>
6
32
9
25
13
24
4
21
30
28
26
5
14
8
18
22
29
2
15
1
20
10
27
19
23
31
16
7
11
3
17
12

> <PUBCHEM_MMFF94_PARTIAL_CHARGES>
14
1 -0.43
11 -0.15
12 0.14
13 -0.29
14 0.42
17 0.66
18 0.06
2 -0.57
3 0.14
31 0.15
35 0.15
5 -0.14
7 0.14
8 -0.28

> <PUBCHEM_EFFECTIVE_ROTOR_COUNT>
5.8

> <PUBCHEM_PHARMACOPHORE_FEATURES>
4
1 16 hydrophobe
1 2 acceptor
3 3 9 10 hydrophobe
6 3 4 5 6 7 8 rings

> <PUBCHEM_HEAVY_ATOM_COUNT>
18

> <PUBCHEM_ATOM_DEF_STEREO_COUNT>
1

> <PUBCHEM_ATOM_UDEF_STEREO_COUNT>
0

> <PUBCHEM_BOND_DEF_STEREO_COUNT>
1

> <PUBCHEM_BOND_UDEF_STEREO_COUNT>
0

> <PUBCHEM_ISOTOPIC_ATOM_COUNT>
0

> <PUBCHEM_COMPONENT_COUNT>
1

> <PUBCHEM_CACTVS_TAUTO_COUNT>
1

> <PUBCHEM_CONFORMER_ID>
00626D6E00000006

> <PUBCHEM_MMFF94_ENERGY>
36.7018

> <PUBCHEM_FEATURE_SELFOVERLAP>
20.297

> <PUBCHEM_SHAPE_FINGERPRINT>
10608611 8 18409162190815498844
10871710 139 15956679906130223924
10922523 26 18334579053033497623
11132069 177 18196933481802040640
11137873 295 18128265492859801751
12707595 3 18199757934074602046
12788726 201 16899061856346907282
13296908 3 18333456451577213779
13544592 145 18337392625995402469
13544592 271 18189889984370786305
15219456 202 18410854364916945008
15375358 24 18334287712353416777
15375462 6 18411980265050790588
15635459 17 18341618092188913734
16945 1 18047177558778882867
18186145 218 18190174599100420125
19049666 15 18336265626545374432
200 152 17846493738119355489
20279233 1 18409729594707736192
204376 136 17985544692282560152
20600515 1 17023177292653285948
20645476 183 16660653908081810579
20645477 56 18333446552026113309
20645477 70 18272931605107127446
20671657 53 18057611958349364294
20693207 138 18338240345302750396
20871999 31 18120950412230758438
221490 88 18412550877494854222
22182313 1 18334300876691955515
22802520 49 18336268950860591473
23402539 116 17970049235824941080
23419403 2 15739711493998027753
23557571 272 18186805802688893180
23558518 356 18261675857366296017
23559900 14 18336539439653954152
2748010 2 18335146400859363147
474 4 16054890234759025288
5104073 3 18409166584761988513
5262128 65 17844257224384661118
58051976 378 18339918311805653892
59755656 215 18412261744965838796
6049 1 18263098672577520584
633830 44 18266162947508392861
7364860 26 18273497862601889894
7615 1 16917075416820295730
81228 2 18113905931278646081
9709674 26 18410009927112363294
9925002 15 17042601488576596892

> <PUBCHEM_SHAPE_MULTIPOLES>
358.69
7.91
2.77
1.3
3.15
0.11
-0.3
-0.53
0.63
1.73
0.62
-0.34
0.39
2.32

> <PUBCHEM_SHAPE_SELFOVERLAP>
714.336

> <PUBCHEM_SHAPE_VOLUME>
212.5

> <PUBCHEM_COORDINATE_TYPE>
2
5
10

$$$$
