6450930
  -OEChem-11232108483D

 48 47  0     0  0  0  0  0  0999 V2000
    8.3300    0.7239    1.2057 O   0  0  0  0  0  0  0  0  0  0  0  0
   -8.1595   -0.7765    1.2344 O   0  0  0  0  0  0  0  0  0  0  0  0
    8.4042    0.8166   -1.0581 O   0  0  0  0  0  0  0  0  0  0  0  0
   -8.2689   -0.9783   -1.0230 O   0  0  0  0  0  0  0  0  0  0  0  0
    2.8276    1.2859   -0.0021 C   0  0  0  0  0  0  0  0  0  0  0  0
   -2.8567   -1.2121   -0.0229 C   0  0  0  0  0  0  0  0  0  0  0  0
    1.4802    1.1926   -0.0001 C   0  0  0  0  0  0  0  0  0  0  0  0
   -1.5100   -1.1515   -0.0260 C   0  0  0  0  0  0  0  0  0  0  0  0
    3.7292    0.1342   -0.0226 C   0  0  0  0  0  0  0  0  0  0  0  0
   -3.7584   -0.0698   -0.0419 C   0  0  0  0  0  0  0  0  0  0  0  0
    0.6582   -0.0028   -0.0185 C   0  0  0  0  0  0  0  0  0  0  0  0
   -0.6843    0.0407   -0.0142 C   0  0  0  0  0  0  0  0  0  0  0  0
    3.4549    2.6608    0.0158 C   0  0  0  0  0  0  0  0  0  0  0  0
   -3.5667   -2.5391    0.0377 C   0  0  0  0  0  0  0  0  0  0  0  0
    5.0728    0.1746   -0.0254 C   0  0  0  0  0  0  0  0  0  0  0  0
   -5.0987   -0.1592   -0.0384 C   0  0  0  0  0  0  0  0  0  0  0  0
    5.9274   -0.9966   -0.0114 C   0  0  0  0  0  0  0  0  0  0  0  0
   -5.9622    1.0050   -0.0320 C   0  0  0  0  0  0  0  0  0  0  0  0
    7.2743   -1.0228   -0.0134 C   0  0  0  0  0  0  0  0  0  0  0  0
   -7.3094    1.0088   -0.0281 C   0  0  0  0  0  0  0  0  0  0  0  0
    8.1199   -2.2674   -0.0219 C   0  0  0  0  0  0  0  0  0  0  0  0
   -8.2002    2.2186   -0.0316 C   0  0  0  0  0  0  0  0  0  0  0  0
    8.0530    0.2520   -0.0312 C   0  0  0  0  0  0  0  0  0  0  0  0
   -7.9566   -0.3378   -0.0307 C   0  0  0  0  0  0  0  0  0  0  0  0
    0.9111    2.1225    0.0156 H   0  0  0  0  0  0  0  0  0  0  0  0
   -0.9582   -2.0910   -0.0089 H   0  0  0  0  0  0  0  0  0  0  0  0
    3.2661   -0.8489   -0.0218 H   0  0  0  0  0  0  0  0  0  0  0  0
   -3.3115    0.9201   -0.0530 H   0  0  0  0  0  0  0  0  0  0  0  0
    1.1527   -0.9685   -0.0341 H   0  0  0  0  0  0  0  0  0  0  0  0
   -1.1786    1.0068    0.0017 H   0  0  0  0  0  0  0  0  0  0  0  0
    4.0700    2.8188   -0.8769 H   0  0  0  0  0  0  0  0  0  0  0  0
    2.7057    3.4605    0.0315 H   0  0  0  0  0  0  0  0  0  0  0  0
    4.0783    2.7917    0.9071 H   0  0  0  0  0  0  0  0  0  0  0  0
   -4.1862   -2.7050   -0.8509 H   0  0  0  0  0  0  0  0  0  0  0  0
   -4.1802   -2.6286    0.9412 H   0  0  0  0  0  0  0  0  0  0  0  0
   -2.8532   -3.3716    0.0709 H   0  0  0  0  0  0  0  0  0  0  0  0
    5.5819    1.1338   -0.0245 H   0  0  0  0  0  0  0  0  0  0  0  0
   -5.5934   -1.1230   -0.0311 H   0  0  0  0  0  0  0  0  0  0  0  0
    5.4060   -1.9529   -0.0052 H   0  0  0  0  0  0  0  0  0  0  0  0
   -5.4572    1.9699   -0.0334 H   0  0  0  0  0  0  0  0  0  0  0  0
    8.7587   -2.2886   -0.9109 H   0  0  0  0  0  0  0  0  0  0  0  0
    7.5038   -3.1724   -0.0288 H   0  0  0  0  0  0  0  0  0  0  0  0
    8.7573   -2.3010    0.8674 H   0  0  0  0  0  0  0  0  0  0  0  0
   -7.6181    3.1456   -0.0430 H   0  0  0  0  0  0  0  0  0  0  0  0
   -8.8331    2.2264    0.8613 H   0  0  0  0  0  0  0  0  0  0  0  0
   -8.8446    2.2121   -0.9163 H   0  0  0  0  0  0  0  0  0  0  0  0
    8.8394    1.5616    1.1738 H   0  0  0  0  0  0  0  0  0  0  0  0
   -8.5823   -1.6615    1.2524 H   0  0  0  0  0  0  0  0  0  0  0  0
  1 23  1  0  0  0  0
  1 47  1  0  0  0  0
  2 24  1  0  0  0  0
  2 48  1  0  0  0  0
  3 23  2  0  0  0  0
  4 24  2  0  0  0  0
  5  7  2  0  0  0  0
  5  9  1  0  0  0  0
  5 13  1  0  0  0  0
  6  8  2  0  0  0  0
  6 10  1  0  0  0  0
  6 14  1  0  0  0  0
  7 11  1  0  0  0  0
  7 25  1  0  0  0  0
  8 12  1  0  0  0  0
  8 26  1  0  0  0  0
  9 15  2  0  0  0  0
  9 27  1  0  0  0  0
 10 16  2  0  0  0  0
 10 28  1  0  0  0  0
 11 12  2  0  0  0  0
 11 29  1  0  0  0  0
 12 30  1  0  0  0  0
 13 31  1  0  0  0  0
 13 32  1  0  0  0  0
 13 33  1  0  0  0  0
 14 34  1  0  0  0  0
 14 35  1  0  0  0  0
 14 36  1  0  0  0  0
 15 17  1  0  0  0  0
 15 37  1  0  0  0  0
 16 18  1  0  0  0  0
 16 38  1  0  0  0  0
 17 19  2  0  0  0  0
 17 39  1  0  0  0  0
 18 20  2  0  0  0  0
 18 40  1  0  0  0  0
 19 21  1  0  0  0  0
 19 23  1  0  0  0  0
 20 22  1  0  0  0  0
 20 24  1  0  0  0  0
 21 41  1  0  0  0  0
 21 42  1  0  0  0  0
 21 43  1  0  0  0  0
 22 44  1  0  0  0  0
 22 45  1  0  0  0  0
 22 46  1  0  0  0  0
M  END
> <PUBCHEM_COMPOUND_CID>
6450930

> <PUBCHEM_CONFORMER_RMSD>
0.8

> <PUBCHEM_CONFORMER_DIVERSEORDER>
1
66
5
27
48
31
13
38
69
56
44
33
47
73
53
7
51
19
74
32
67
68
63
11
4
78
24
9
58
72
79
20
55
43
2
62
30
75
36
39
52
12
50
45
28
42
70
23
34
59
10
40
29
18
49
26
64
22
25
37
46
8
21
6
77
15
16
76
65
57
14
35
71
3
60
61
41
54
80
17

> <PUBCHEM_MMFF94_PARTIAL_CHARGES>
36
1 -0.65
10 -0.15
11 -0.15
12 -0.15
13 0.14
14 0.14
15 -0.15
16 -0.15
17 -0.15
18 -0.15
19 -0.12
2 -0.65
20 -0.12
21 0.14
22 0.14
23 0.71
24 0.71
25 0.15
26 0.15
27 0.15
28 0.15
29 0.15
3 -0.57
30 0.15
37 0.15
38 0.15
39 0.15
4 -0.57
40 0.15
47 0.5
48 0.5
5 -0.14
6 -0.14
7 -0.15
8 -0.15
9 -0.15

> <PUBCHEM_EFFECTIVE_ROTOR_COUNT>
8

> <PUBCHEM_PHARMACOPHORE_FEATURES>
10
1 1 acceptor
1 13 hydrophobe
1 14 hydrophobe
1 2 acceptor
1 21 hydrophobe
1 22 hydrophobe
1 3 acceptor
1 4 acceptor
3 1 3 23 anion
3 2 4 24 anion

> <PUBCHEM_HEAVY_ATOM_COUNT>
24

> <PUBCHEM_ATOM_DEF_STEREO_COUNT>
0

> <PUBCHEM_ATOM_UDEF_STEREO_COUNT>
0

> <PUBCHEM_BOND_DEF_STEREO_COUNT>
7

> <PUBCHEM_BOND_UDEF_STEREO_COUNT>
0

> <PUBCHEM_ISOTOPIC_ATOM_COUNT>
0

> <PUBCHEM_COMPONENT_COUNT>
1

> <PUBCHEM_CACTVS_TAUTO_COUNT>
1

> <PUBCHEM_CONFORMER_ID>
00626EF200000001

> <PUBCHEM_MMFF94_ENERGY>
56.4148

> <PUBCHEM_FEATURE_SELFOVERLAP>
50.866

> <PUBCHEM_SHAPE_FINGERPRINT>
100830 39 18409167702134232889
10299344 5 17967252005097455510
10670039 82 18342453704553367577
10674148 151 18040714775422806872
10883706 142 17131838673263680827
11315181 36 17346319319218399083
11408170 108 16845018893052684126
11638347 137 14117805704603098244
12592606 108 18412824698354689598
13885169 127 18411418414898893771
14216079 64 18341895139814211766
14251764 18 18410573985151451158
14251764 46 17240483606735377355
15183329 4 18410293592511787184
15347591 1 18192153917239884949
15461852 350 16487254400088706165
15728490 51 8430309139506478985
16120349 18 18261392295584073604
18335252 98 8935000382603230613
21095086 128 15719392845618325923
21315763 28 18412262861609960309
21792934 111 18272360951000371976
232437 2 18412263922176933486
23559900 14 18339355374937529832
249057 3 18410855494493181430
2838139 119 18343017814237233093
28498 318 18411136914046890942
335352 9 18410574006631575750
4073 2 17969506085850070306
4325135 7 9223231844837816792
59755656 520 18261387876263192263
6126387 218 18131346414861750002

> <PUBCHEM_SHAPE_MULTIPOLES>
470.43
33.89
2.16
0.76
1.7
0.07
0.04
-0.57
0.22
0.04
-0.01
0.01
-0.01
0.06

> <PUBCHEM_SHAPE_SELFOVERLAP>
933.361

> <PUBCHEM_SHAPE_VOLUME>
277.9

> <PUBCHEM_COORDINATE_TYPE>
2
5
10

$$$$
