6452049
  -OEChem-11232108593D

 34 35  0     0  0  0  0  0  0999 V2000
   -1.5430    0.2391    0.7694 O   0  0  0  0  0  0  0  0  0  0  0  0
   -3.4963    1.3035    1.3269 O   0  0  0  0  0  0  0  0  0  0  0  0
   -1.0645   -0.5361   -0.3480 C   0  0  0  0  0  0  0  0  0  0  0  0
    1.8904   -0.1521   -0.2409 C   0  0  0  0  0  0  0  0  0  0  0  0
   -0.3320    0.3969   -1.3288 C   0  0  0  0  0  0  0  0  0  0  0  0
   -0.1255   -1.6341    0.1662 C   0  0  0  0  0  0  0  0  0  0  0  0
    0.9592    0.9617   -0.7332 C   0  0  0  0  0  0  0  0  0  0  0  0
    1.1666   -1.0652    0.7552 C   0  0  0  0  0  0  0  0  0  0  0  0
   -2.3374   -1.1196   -0.9456 C   0  0  0  0  0  0  0  0  0  0  0  0
    3.1519    0.4379    0.3868 C   0  0  0  0  0  0  0  0  0  0  0  0
   -3.3695   -0.0480   -0.6779 C   0  0  0  0  0  0  0  0  0  0  0  0
   -2.8554    0.5768    0.5837 C   0  0  0  0  0  0  0  0  0  0  0  0
    4.0613   -0.6724    0.9076 C   0  0  0  0  0  0  0  0  0  0  0  0
    3.8942    1.3119   -0.6214 C   0  0  0  0  0  0  0  0  0  0  0  0
    2.1762   -0.7624   -1.1098 H   0  0  0  0  0  0  0  0  0  0  0  0
   -0.9708    1.2424   -1.6107 H   0  0  0  0  0  0  0  0  0  0  0  0
   -0.0923   -0.1497   -2.2497 H   0  0  0  0  0  0  0  0  0  0  0  0
    0.1228   -2.3229   -0.6513 H   0  0  0  0  0  0  0  0  0  0  0  0
   -0.6242   -2.2207    0.9480 H   0  0  0  0  0  0  0  0  0  0  0  0
    1.4370    1.5601   -1.5157 H   0  0  0  0  0  0  0  0  0  0  0  0
    0.7160    1.6447    0.0904 H   0  0  0  0  0  0  0  0  0  0  0  0
    0.9394   -0.5156    1.6774 H   0  0  0  0  0  0  0  0  0  0  0  0
    1.7899   -1.9205    1.0355 H   0  0  0  0  0  0  0  0  0  0  0  0
   -2.6325   -2.0316   -0.4105 H   0  0  0  0  0  0  0  0  0  0  0  0
   -2.2512   -1.3745   -2.0063 H   0  0  0  0  0  0  0  0  0  0  0  0
    2.8812    1.0724    1.2412 H   0  0  0  0  0  0  0  0  0  0  0  0
   -4.3622   -0.4784   -0.5267 H   0  0  0  0  0  0  0  0  0  0  0  0
   -3.3934    0.7054   -1.4700 H   0  0  0  0  0  0  0  0  0  0  0  0
    4.2440   -1.4365    0.1443 H   0  0  0  0  0  0  0  0  0  0  0  0
    5.0342   -0.2656    1.2065 H   0  0  0  0  0  0  0  0  0  0  0  0
    3.6488   -1.1568    1.7978 H   0  0  0  0  0  0  0  0  0  0  0  0
    4.0670    0.7820   -1.5643 H   0  0  0  0  0  0  0  0  0  0  0  0
    4.8719    1.6109   -0.2264 H   0  0  0  0  0  0  0  0  0  0  0  0
    3.3552    2.2395   -0.8354 H   0  0  0  0  0  0  0  0  0  0  0  0
  1  3  1  0  0  0  0
  1 12  1  0  0  0  0
  2 12  2  0  0  0  0
  3  5  1  0  0  0  0
  3  6  1  0  0  0  0
  3  9  1  0  0  0  0
  4  7  1  0  0  0  0
  4  8  1  0  0  0  0
  4 10  1  0  0  0  0
  4 15  1  0  0  0  0
  5  7  1  0  0  0  0
  5 16  1  0  0  0  0
  5 17  1  0  0  0  0
  6  8  1  0  0  0  0
  6 18  1  0  0  0  0
  6 19  1  0  0  0  0
  7 20  1  0  0  0  0
  7 21  1  0  0  0  0
  8 22  1  0  0  0  0
  8 23  1  0  0  0  0
  9 11  1  0  0  0  0
  9 24  1  0  0  0  0
  9 25  1  0  0  0  0
 10 13  1  0  0  0  0
 10 14  1  0  0  0  0
 10 26  1  0  0  0  0
 11 12  1  0  0  0  0
 11 27  1  0  0  0  0
 11 28  1  0  0  0  0
 13 29  1  0  0  0  0
 13 30  1  0  0  0  0
 13 31  1  0  0  0  0
 14 32  1  0  0  0  0
 14 33  1  0  0  0  0
 14 34  1  0  0  0  0
M  END
> <PUBCHEM_COMPOUND_CID>
6452049

> <PUBCHEM_CONFORMER_RMSD>
0.6

> <PUBCHEM_CONFORMER_DIVERSEORDER>
1
5
8
4
3
6
7
2

> <PUBCHEM_MMFF94_PARTIAL_CHARGES>
5
1 -0.43
11 0.06
12 0.66
2 -0.57
3 0.28

> <PUBCHEM_EFFECTIVE_ROTOR_COUNT>
2.6

> <PUBCHEM_PHARMACOPHORE_FEATURES>
4
1 2 acceptor
3 10 13 14 hydrophobe
5 1 3 9 11 12 rings
6 3 4 5 6 7 8 rings

> <PUBCHEM_HEAVY_ATOM_COUNT>
14

> <PUBCHEM_ATOM_DEF_STEREO_COUNT>
0

> <PUBCHEM_ATOM_UDEF_STEREO_COUNT>
0

> <PUBCHEM_BOND_DEF_STEREO_COUNT>
0

> <PUBCHEM_BOND_UDEF_STEREO_COUNT>
0

> <PUBCHEM_ISOTOPIC_ATOM_COUNT>
0

> <PUBCHEM_COMPONENT_COUNT>
1

> <PUBCHEM_CACTVS_TAUTO_COUNT>
2

> <PUBCHEM_CONFORMER_ID>
0062735100000001

> <PUBCHEM_MMFF94_ENERGY>
24.8829

> <PUBCHEM_FEATURE_SELFOVERLAP>
20.306

> <PUBCHEM_SHAPE_FINGERPRINT>
10219947 1 17822007614369133678
10980938 120 18335417941893242266
11132069 177 18187070785270391682
11543360 7 16916221221050717612
12138202 97 16415477130187250213
12162725 195 18060416953897458424
12186901 62 17060345136410272645
12251169 10 17313678134372062081
124424 183 16081078273511831319
12491281 212 18343589563618366106
13296908 3 16081365263279297372
14144814 61 18334291002598961340
14943859 89 17489585649456791346
14993402 34 18334850662375462054
15219456 202 16515400768051399884
15309172 13 18113335314639400138
15775835 57 18272939293109123753
16945 1 17821732723340040943
17844478 74 16732699437361184940
18175812 5 16370722630117269702
18186145 218 18408041818995419788
18534176 82 16343706555802204799
19026448 4 16415480471603162966
19026448 5 18272647965567002734
19107657 47 17821717326019317728
19422 9 18412541033297871510
200 152 18188766271150955919
201361 129 18270686363629297402
20279233 1 16153420662261883002
20281407 28 14129059205364461136
20645477 56 17203613683389801625
20645477 70 17459170954947106258
20711983 171 17989772189425305236
21061003 4 16950285096048273349
22485316 2 7925918066856590658
23236772 104 18412261753075731875
23402539 116 17560506383595994837
23419403 2 15387177876676049582
23557571 272 16558762247024123069
23559900 14 16271933688553385598
305870 269 18201163139646119407
3286 77 18058430141055438098
568465 68 16733281096055322497
57812782 119 16415477185810737094
63268167 104 18259977201826098358
77492 1 18412819196532926574

> <PUBCHEM_SHAPE_MULTIPOLES>
276.37
6.86
1.38
1.17
2.58
0.16
-0.11
-1.39
-1.43
0.53
0.02
-0.8
-0.17
-0.95

> <PUBCHEM_SHAPE_SELFOVERLAP>
566.233

> <PUBCHEM_SHAPE_VOLUME>
160.3

> <PUBCHEM_COORDINATE_TYPE>
2
5
10

$$$$
