6455496
  -OEChem-11232108423D

 45 46  0     1  0  0  0  0  0999 V2000
   -3.5699   -1.1207    0.5461 O   0  0  0  0  0  0  0  0  0  0  0  0
    1.5709   -1.0496   -0.3381 C   0  0  2  0  0  0  0  0  0  0  0  0
    1.4104    0.4726   -0.6360 C   0  0  1  0  0  0  0  0  0  0  0  0
   -1.1144    0.3238   -0.3065 C   0  0  1  0  0  0  0  0  0  0  0  0
    0.2333   -1.7922   -0.5921 C   0  0  0  0  0  0  0  0  0  0  0  0
    0.1676    1.0883    0.0401 C   0  0  0  0  0  0  0  0  0  0  0  0
    2.0360   -1.2678    1.1285 C   0  0  0  0  0  0  0  0  0  0  0  0
   -0.9795   -1.1510    0.0778 C   0  0  0  0  0  0  0  0  0  0  0  0
    2.6569    1.2427   -0.2292 C   0  0  0  0  0  0  0  0  0  0  0  0
    3.2944   -0.4717    1.4905 C   0  0  0  0  0  0  0  0  0  0  0  0
    2.6165   -1.6695   -1.2996 C   0  0  0  0  0  0  0  0  0  0  0  0
   -2.3218    0.9524    0.3875 C   0  0  0  0  0  0  0  0  0  0  0  0
    3.1512    1.0165    1.1773 C   0  0  0  0  0  0  0  0  0  0  0  0
   -3.6575    0.2377    0.1109 C   0  0  0  0  0  0  0  0  0  0  0  0
    3.3002    2.0550   -1.0821 C   0  0  0  0  0  0  0  0  0  0  0  0
   -4.0124    0.2195   -1.3768 C   0  0  0  0  0  0  0  0  0  0  0  0
   -4.7818    0.9141    0.9018 C   0  0  0  0  0  0  0  0  0  0  0  0
    1.2623    0.5829   -1.7207 H   0  0  0  0  0  0  0  0  0  0  0  0
   -1.2515    0.3933   -1.3932 H   0  0  0  0  0  0  0  0  0  0  0  0
    0.3153   -2.8366   -0.2644 H   0  0  0  0  0  0  0  0  0  0  0  0
    0.0420   -1.8268   -1.6740 H   0  0  0  0  0  0  0  0  0  0  0  0
    0.2887    1.1118    1.1303 H   0  0  0  0  0  0  0  0  0  0  0  0
    0.0633    2.1340   -0.2788 H   0  0  0  0  0  0  0  0  0  0  0  0
    2.2261   -2.3336    1.3079 H   0  0  0  0  0  0  0  0  0  0  0  0
    1.2410   -0.9805    1.8266 H   0  0  0  0  0  0  0  0  0  0  0  0
   -1.7973   -1.7522   -0.3184 H   0  0  0  0  0  0  0  0  0  0  0  0
   -0.9366   -1.2832    1.1642 H   0  0  0  0  0  0  0  0  0  0  0  0
    4.1613   -0.8802    0.9578 H   0  0  0  0  0  0  0  0  0  0  0  0
    3.5063   -0.5977    2.5590 H   0  0  0  0  0  0  0  0  0  0  0  0
    2.3002   -1.5636   -2.3439 H   0  0  0  0  0  0  0  0  0  0  0  0
    3.6006   -1.1995   -1.2147 H   0  0  0  0  0  0  0  0  0  0  0  0
    2.7441   -2.7398   -1.1006 H   0  0  0  0  0  0  0  0  0  0  0  0
   -2.4034    2.0051    0.0867 H   0  0  0  0  0  0  0  0  0  0  0  0
   -2.1379    0.9498    1.4710 H   0  0  0  0  0  0  0  0  0  0  0  0
    4.1169    1.5090    1.3438 H   0  0  0  0  0  0  0  0  0  0  0  0
    2.4480    1.4732    1.8838 H   0  0  0  0  0  0  0  0  0  0  0  0
    2.9447    2.2037   -2.0962 H   0  0  0  0  0  0  0  0  0  0  0  0
    4.1955    2.5906   -0.7848 H   0  0  0  0  0  0  0  0  0  0  0  0
   -4.0314    1.2295   -1.7985 H   0  0  0  0  0  0  0  0  0  0  0  0
   -3.3103   -0.3906   -1.9545 H   0  0  0  0  0  0  0  0  0  0  0  0
   -4.9976   -0.2359   -1.5331 H   0  0  0  0  0  0  0  0  0  0  0  0
   -4.9232    1.9547    0.5918 H   0  0  0  0  0  0  0  0  0  0  0  0
   -5.7294    0.3795    0.7686 H   0  0  0  0  0  0  0  0  0  0  0  0
   -4.5691    0.8993    1.9769 H   0  0  0  0  0  0  0  0  0  0  0  0
   -3.4254   -1.1185    1.5080 H   0  0  0  0  0  0  0  0  0  0  0  0
  1 14  1  0  0  0  0
  1 45  1  0  0  0  0
  2  3  1  0  0  0  0
  2  5  1  0  0  0  0
  2  7  1  0  0  0  0
  2 11  1  0  0  0  0
  3  6  1  0  0  0  0
  3  9  1  0  0  0  0
  3 18  1  0  0  0  0
  4  6  1  0  0  0  0
  4  8  1  0  0  0  0
  4 12  1  0  0  0  0
  4 19  1  0  0  0  0
  5  8  1  0  0  0  0
  5 20  1  0  0  0  0
  5 21  1  0  0  0  0
  6 22  1  0  0  0  0
  6 23  1  0  0  0  0
  7 10  1  0  0  0  0
  7 24  1  0  0  0  0
  7 25  1  0  0  0  0
  8 26  1  0  0  0  0
  8 27  1  0  0  0  0
  9 13  1  0  0  0  0
  9 15  2  0  0  0  0
 10 13  1  0  0  0  0
 10 28  1  0  0  0  0
 10 29  1  0  0  0  0
 11 30  1  0  0  0  0
 11 31  1  0  0  0  0
 11 32  1  0  0  0  0
 12 14  1  0  0  0  0
 12 33  1  0  0  0  0
 12 34  1  0  0  0  0
 13 35  1  0  0  0  0
 13 36  1  0  0  0  0
 14 16  1  0  0  0  0
 14 17  1  0  0  0  0
 15 37  1  0  0  0  0
 15 38  1  0  0  0  0
 16 39  1  0  0  0  0
 16 40  1  0  0  0  0
 16 41  1  0  0  0  0
 17 42  1  0  0  0  0
 17 43  1  0  0  0  0
 17 44  1  0  0  0  0
M  END
> <PUBCHEM_COMPOUND_CID>
6455496

> <PUBCHEM_CONFORMER_RMSD>
0.6

> <PUBCHEM_CONFORMER_DIVERSEORDER>
2
18
24
14
17
19
23
3
21
6
11
22
8
7
12
13
16
10
1
4
9
5
15
20

> <PUBCHEM_MMFF94_PARTIAL_CHARGES>
9
1 -0.68
13 0.14
14 0.28
15 -0.3
3 0.14
37 0.15
38 0.15
45 0.4
9 -0.28

> <PUBCHEM_EFFECTIVE_ROTOR_COUNT>
3.4

> <PUBCHEM_PHARMACOPHORE_FEATURES>
5
1 1 acceptor
1 1 donor
3 14 16 17 hydrophobe
6 2 3 4 5 6 8 rings
6 2 3 7 9 10 13 rings

> <PUBCHEM_HEAVY_ATOM_COUNT>
17

> <PUBCHEM_ATOM_DEF_STEREO_COUNT>
0

> <PUBCHEM_ATOM_UDEF_STEREO_COUNT>
3

> <PUBCHEM_BOND_DEF_STEREO_COUNT>
0

> <PUBCHEM_BOND_UDEF_STEREO_COUNT>
0

> <PUBCHEM_ISOTOPIC_ATOM_COUNT>
0

> <PUBCHEM_COMPONENT_COUNT>
1

> <PUBCHEM_CACTVS_TAUTO_COUNT>
1

> <PUBCHEM_CONFORMER_ID>
006280C800000002

> <PUBCHEM_MMFF94_ENERGY>
47.2348

> <PUBCHEM_FEATURE_SELFOVERLAP>
25.426

> <PUBCHEM_SHAPE_FINGERPRINT>
10980938 120 18413388739298038061
11132069 177 18412821374482174795
11543360 7 14764346089133577561
12251169 10 18260819402358712592
12644460 14 18040724662268976544
12932764 1 17603874373169393623
13224815 77 18273492377728212359
13296908 3 18408612452555876987
13538477 17 18264764527325345454
13583140 156 17240471529382299461
13705890 14 13470692568012433348
14251764 38 18042671832890468373
14289901 80 17346873442924297651
14344429 50 18040718035255634566
15536298 74 18131073697101777135
15775835 57 18263645220267415016
16945 1 18188771630578882422
18186145 218 18334861580498800375
19026448 4 16443339875795314077
19050596 39 18272367551515792625
20279233 1 17895187792973652583
20559304 39 18272088271204339496
20645477 70 18408886209486848031
21501502 16 18263076772418303179
21503847 285 18267317447069514393
21524375 3 18118129297459470524
2255824 54 18339649932020899974
22854114 111 17989202633627527497
231179 274 18040154045825247380
23402539 116 17275094038081366504
23559900 14 18339930316075897918
2748010 2 18339656619052838807
276578 36 18342176687140201888
2838139 119 16700312356472948416
296302 2 17822292422150944501
3286 77 16916503640740846086
44154327 71 18334860566813068316
449060 62 18411987965700136357
474 4 18411422804207829329
4990 188 16056603174568449692
5104073 3 18412553089645501651
581208 293 18343579633643382765
633830 44 18339930324966051679
7364860 26 18059577940963794678
81539 233 18041284365237626284
9999458 23 17676210195552591100

> <PUBCHEM_SHAPE_MULTIPOLES>
343.98
7.99
1.89
1.32
8.26
0.12
0.05
-2.13
0.96
-1.44
-0.36
-0.63
0.05
-0.34

> <PUBCHEM_SHAPE_SELFOVERLAP>
697.908

> <PUBCHEM_SHAPE_VOLUME>
199.1

> <PUBCHEM_COORDINATE_TYPE>
2
5
10

$$$$
