6504499
  -OEChem-11232109223D

 39 39  0     1  0  0  0  0  0999 V2000
   -3.8073   -1.0512    1.0533 O   0  0  0  0  0  0  0  0  0  0  0  0
    1.7597   -0.5634    0.0736 C   0  0  0  0  0  0  0  0  0  0  0  0
    1.0365    0.8131    0.2161 C   0  0  1  0  0  0  0  0  0  0  0  0
    2.0149    1.8467   -0.3626 C   0  0  0  0  0  0  0  0  0  0  0  0
    3.2118   -0.1199    0.1189 C   0  0  0  0  0  0  0  0  0  0  0  0
    3.3355    1.1914   -0.1300 C   0  0  0  0  0  0  0  0  0  0  0  0
    1.3762   -1.4904    1.2353 C   0  0  0  0  0  0  0  0  0  0  0  0
    1.4773   -1.2707   -1.2643 C   0  0  0  0  0  0  0  0  0  0  0  0
   -0.3322    0.9054   -0.3781 C   0  0  0  0  0  0  0  0  0  0  0  0
    4.3389   -1.0639    0.3578 C   0  0  0  0  0  0  0  0  0  0  0  0
   -1.4587    0.6307    0.2964 C   0  0  0  0  0  0  0  0  0  0  0  0
   -2.8423    0.7248   -0.3055 C   0  0  1  0  0  0  0  0  0  0  0  0
   -3.5950   -0.6246   -0.2908 C   0  0  1  0  0  0  0  0  0  0  0  0
   -3.6398    1.8011    0.4391 C   0  0  0  0  0  0  0  0  0  0  0  0
   -2.8755   -1.7289   -1.0592 C   0  0  0  0  0  0  0  0  0  0  0  0
    0.9491    1.0447    1.2907 H   0  0  0  0  0  0  0  0  0  0  0  0
    1.9422    2.7979    0.1746 H   0  0  0  0  0  0  0  0  0  0  0  0
    1.8688    2.0333   -1.4321 H   0  0  0  0  0  0  0  0  0  0  0  0
    4.2769    1.7197   -0.1861 H   0  0  0  0  0  0  0  0  0  0  0  0
    1.6231   -1.0444    2.2055 H   0  0  0  0  0  0  0  0  0  0  0  0
    0.3031   -1.7096    1.2309 H   0  0  0  0  0  0  0  0  0  0  0  0
    1.9048   -2.4485    1.1713 H   0  0  0  0  0  0  0  0  0  0  0  0
    0.4302   -1.5820   -1.3411 H   0  0  0  0  0  0  0  0  0  0  0  0
    1.6974   -0.6241   -2.1218 H   0  0  0  0  0  0  0  0  0  0  0  0
    2.0879   -2.1749   -1.3712 H   0  0  0  0  0  0  0  0  0  0  0  0
   -0.4044    1.1849   -1.4266 H   0  0  0  0  0  0  0  0  0  0  0  0
    5.3079   -0.5596    0.2802 H   0  0  0  0  0  0  0  0  0  0  0  0
    4.3278   -1.8746   -0.3765 H   0  0  0  0  0  0  0  0  0  0  0  0
    4.2719   -1.4990    1.3595 H   0  0  0  0  0  0  0  0  0  0  0  0
   -1.3918    0.3357    1.3412 H   0  0  0  0  0  0  0  0  0  0  0  0
   -2.7603    1.0451   -1.3532 H   0  0  0  0  0  0  0  0  0  0  0  0
   -4.5841   -0.4761   -0.7414 H   0  0  0  0  0  0  0  0  0  0  0  0
   -3.1456    2.7762    0.3604 H   0  0  0  0  0  0  0  0  0  0  0  0
   -3.7480    1.5684    1.5044 H   0  0  0  0  0  0  0  0  0  0  0  0
   -4.6433    1.9037    0.0122 H   0  0  0  0  0  0  0  0  0  0  0  0
   -3.5014   -2.6273   -1.1018 H   0  0  0  0  0  0  0  0  0  0  0  0
   -2.6472   -1.4192   -2.0834 H   0  0  0  0  0  0  0  0  0  0  0  0
   -1.9482   -2.0269   -0.5592 H   0  0  0  0  0  0  0  0  0  0  0  0
   -4.3091   -1.8836    1.0218 H   0  0  0  0  0  0  0  0  0  0  0  0
  1 13  1  0  0  0  0
  1 39  1  0  0  0  0
  2  3  1  0  0  0  0
  2  5  1  0  0  0  0
  2  7  1  0  0  0  0
  2  8  1  0  0  0  0
  3  4  1  0  0  0  0
  3  9  1  0  0  0  0
  3 16  1  0  0  0  0
  4  6  1  0  0  0  0
  4 17  1  0  0  0  0
  4 18  1  0  0  0  0
  5  6  2  0  0  0  0
  5 10  1  0  0  0  0
  6 19  1  0  0  0  0
  7 20  1  0  0  0  0
  7 21  1  0  0  0  0
  7 22  1  0  0  0  0
  8 23  1  0  0  0  0
  8 24  1  0  0  0  0
  8 25  1  0  0  0  0
  9 11  2  0  0  0  0
  9 26  1  0  0  0  0
 10 27  1  0  0  0  0
 10 28  1  0  0  0  0
 10 29  1  0  0  0  0
 11 12  1  0  0  0  0
 11 30  1  0  0  0  0
 12 13  1  0  0  0  0
 12 14  1  0  0  0  0
 12 31  1  0  0  0  0
 13 15  1  0  0  0  0
 13 32  1  0  0  0  0
 14 33  1  0  0  0  0
 14 34  1  0  0  0  0
 14 35  1  0  0  0  0
 15 36  1  0  0  0  0
 15 37  1  0  0  0  0
 15 38  1  0  0  0  0
M  END
> <PUBCHEM_COMPOUND_CID>
6504499

> <PUBCHEM_CONFORMER_RMSD>
0.6

> <PUBCHEM_CONFORMER_DIVERSEORDER>
80
24
120
68
10
77
116
69
196
156
105
195
175
132
78
38
128
174
84
103
213
104
102
36
139
37
167
63
72
76
123
107
192
73
85
197
16
221
19
225
42
161
119
94
47
131
56
242
30
152
26
31
173
62
25
61
190
122
17
65
218
142
145
160
176
70
64
233
96
205
86
222
121
199
211
164
34
171
235
163
29
90
228
118
151
201
6
217
51
66
5
33
67
232
20
92
208
113
144
50
155
7
49
58
110
41
101
158
194
39
214
117
203
137
32
240
114
231
153
193
18
75
186
60
204
150
135
100
98
178
215
54
239
170
154
191
234
169
127
44
40
136
149
88
13
146
74
4
212
52
14
43
200
9
179
82
12
206
91
143
8
177
236
3
1
111
230
162
181
168
57
147
220
244
202
21
172
241
141
129
224
79
71
182
87
95
180
83
59
187
55
184
210
166
22
229
53
237
108
112
138
89
28
207
46
97
185
124
223
219
15
35
115
27
227
148
48
106
209
2
11
134
140
109
183
238
189
130
226
157
165
159
216
126
81
99
45
125
93
133
23
188
198
243

> <PUBCHEM_MMFF94_PARTIAL_CHARGES>
15
1 -0.68
10 0.14
11 -0.29
12 0.14
13 0.28
19 0.15
2 0.14
26 0.15
3 0.14
30 0.15
39 0.4
4 0.14
5 -0.28
6 -0.29
9 -0.29

> <PUBCHEM_EFFECTIVE_ROTOR_COUNT>
3.6

> <PUBCHEM_PHARMACOPHORE_FEATURES>
5
1 1 acceptor
1 1 donor
1 14 hydrophobe
3 2 7 8 hydrophobe
5 2 3 4 5 6 rings

> <PUBCHEM_HEAVY_ATOM_COUNT>
15

> <PUBCHEM_ATOM_DEF_STEREO_COUNT>
0

> <PUBCHEM_ATOM_UDEF_STEREO_COUNT>
3

> <PUBCHEM_BOND_DEF_STEREO_COUNT>
1

> <PUBCHEM_BOND_UDEF_STEREO_COUNT>
0

> <PUBCHEM_ISOTOPIC_ATOM_COUNT>
0

> <PUBCHEM_COMPONENT_COUNT>
1

> <PUBCHEM_CACTVS_TAUTO_COUNT>
1

> <PUBCHEM_CONFORMER_ID>
0063403300000050

> <PUBCHEM_MMFF94_ENERGY>
29.2954

> <PUBCHEM_FEATURE_SELFOVERLAP>
25.371

> <PUBCHEM_SHAPE_FINGERPRINT>
10616163 171 18343582971107700815
11132069 177 18273205409193008942
12251169 10 18341332202091220213
12500047 106 17916860223561018113
12932764 1 17967813786956987493
13296908 3 18409451379790544669
14144814 61 18343302556992998249
14965852 173 18412542115634963197
15375358 24 17988076686766234037
15375462 189 18187926123242963801
15757776 16 18260821605492370818
15775835 57 18187365376829389027
18186145 218 17458060464960590672
19050596 39 18409167692710744721
19422 9 18412262852228676580
200 152 18342447171554071629
20279233 1 17703790288951409949
20442098 301 18272649060783721815
20645477 70 18410848859153974327
21501502 16 18410575110443685669
21634736 98 18123183764927701310
21730867 7 17748820821768134338
221490 88 18261680375676646650
23402539 116 17967810514402800436
23402655 69 18409166597520522996
2871803 45 18187355575962127735
5104073 3 18410292510243702968
58051976 100 18334011653884523325
581208 293 18187641436005508552
633830 44 18113622283111131172
9709674 26 18413112766486007879

> <PUBCHEM_SHAPE_MULTIPOLES>
302.82
7.93
1.97
1.02
2.28
0.1
-0.01
-0.77
-0.69
0.39
0.12
0.14
-0.42
-0.59

> <PUBCHEM_SHAPE_SELFOVERLAP>
599.82

> <PUBCHEM_SHAPE_VOLUME>
184.6

> <PUBCHEM_COORDINATE_TYPE>
2
5
10

$$$$
