6504440
  -OEChem-11232108513D

 31 31  0     0  0  0  0  0  0999 V2000
   -4.3793    1.0899    0.4470 O   0  0  0  0  0  0  0  0  0  0  0  0
    0.4576   -0.7425    0.4647 C   0  0  0  0  0  0  0  0  0  0  0  0
    0.6279    0.6099    1.1009 C   0  0  0  0  0  0  0  0  0  0  0  0
    1.6040    1.4708    0.2902 C   0  0  0  0  0  0  0  0  0  0  0  0
    1.7377   -1.5081    0.2451 C   0  0  0  0  0  0  0  0  0  0  0  0
   -0.7385   -1.2170    0.0883 C   0  0  0  0  0  0  0  0  0  0  0  0
    2.8279    0.7205   -0.1820 C   0  0  0  0  0  0  0  0  0  0  0  0
    2.8775   -0.6242   -0.1826 C   0  0  0  0  0  0  0  0  0  0  0  0
   -2.0116   -0.4479    0.3518 C   0  0  0  0  0  0  0  0  0  0  0  0
   -0.8758   -2.5545   -0.5821 C   0  0  0  0  0  0  0  0  0  0  0  0
    3.9775    1.5591   -0.6558 C   0  0  0  0  0  0  0  0  0  0  0  0
   -2.3992    0.4621   -0.8120 C   0  0  0  0  0  0  0  0  0  0  0  0
   -3.7057    1.1819   -0.5737 C   0  0  0  0  0  0  0  0  0  0  0  0
   -0.2881    1.1891    1.2278 H   0  0  0  0  0  0  0  0  0  0  0  0
    1.0306    0.4613    2.1121 H   0  0  0  0  0  0  0  0  0  0  0  0
    1.9103    2.3199    0.9135 H   0  0  0  0  0  0  0  0  0  0  0  0
    1.0905    1.8844   -0.5871 H   0  0  0  0  0  0  0  0  0  0  0  0
    1.6377   -2.2756   -0.5285 H   0  0  0  0  0  0  0  0  0  0  0  0
    2.0201   -2.0137    1.1762 H   0  0  0  0  0  0  0  0  0  0  0  0
    3.7818   -1.1294   -0.5127 H   0  0  0  0  0  0  0  0  0  0  0  0
   -1.9761    0.1115    1.2930 H   0  0  0  0  0  0  0  0  0  0  0  0
   -2.8245   -1.1666    0.5262 H   0  0  0  0  0  0  0  0  0  0  0  0
   -0.6715   -2.4667   -1.6539 H   0  0  0  0  0  0  0  0  0  0  0  0
   -0.2205   -3.3139   -0.1446 H   0  0  0  0  0  0  0  0  0  0  0  0
   -1.8936   -2.9450   -0.4725 H   0  0  0  0  0  0  0  0  0  0  0  0
    4.8189    0.9492   -1.0012 H   0  0  0  0  0  0  0  0  0  0  0  0
    4.3402    2.1995    0.1547 H   0  0  0  0  0  0  0  0  0  0  0  0
    3.6633    2.1961   -1.4889 H   0  0  0  0  0  0  0  0  0  0  0  0
   -1.6318    1.2244   -0.9843 H   0  0  0  0  0  0  0  0  0  0  0  0
   -2.5117   -0.1195   -1.7340 H   0  0  0  0  0  0  0  0  0  0  0  0
   -4.0356    1.8312   -1.4030 H   0  0  0  0  0  0  0  0  0  0  0  0
  1 13  2  0  0  0  0
  2  3  1  0  0  0  0
  2  5  1  0  0  0  0
  2  6  2  0  0  0  0
  3  4  1  0  0  0  0
  3 14  1  0  0  0  0
  3 15  1  0  0  0  0
  4  7  1  0  0  0  0
  4 16  1  0  0  0  0
  4 17  1  0  0  0  0
  5  8  1  0  0  0  0
  5 18  1  0  0  0  0
  5 19  1  0  0  0  0
  6  9  1  0  0  0  0
  6 10  1  0  0  0  0
  7  8  2  0  0  0  0
  7 11  1  0  0  0  0
  8 20  1  0  0  0  0
  9 12  1  0  0  0  0
  9 21  1  0  0  0  0
  9 22  1  0  0  0  0
 10 23  1  0  0  0  0
 10 24  1  0  0  0  0
 10 25  1  0  0  0  0
 11 26  1  0  0  0  0
 11 27  1  0  0  0  0
 11 28  1  0  0  0  0
 12 13  1  0  0  0  0
 12 29  1  0  0  0  0
 12 30  1  0  0  0  0
 13 31  1  0  0  0  0
M  END
> <PUBCHEM_COMPOUND_CID>
6504440

> <PUBCHEM_CONFORMER_RMSD>
0.6

> <PUBCHEM_CONFORMER_DIVERSEORDER>
1
19
3
13
8
10
16
5
12
11
6
9
14
17
7
15
2
4
18

> <PUBCHEM_MMFF94_PARTIAL_CHARGES>
15
1 -0.57
10 0.14
11 0.14
12 0.06
13 0.45
2 -0.28
20 0.15
3 0.14
31 0.06
4 0.14
5 0.28
6 -0.28
7 -0.28
8 -0.29
9 0.14

> <PUBCHEM_EFFECTIVE_ROTOR_COUNT>
3.6

> <PUBCHEM_PHARMACOPHORE_FEATURES>
3
1 1 acceptor
1 10 hydrophobe
6 2 3 4 5 7 8 rings

> <PUBCHEM_HEAVY_ATOM_COUNT>
13

> <PUBCHEM_ATOM_DEF_STEREO_COUNT>
0

> <PUBCHEM_ATOM_UDEF_STEREO_COUNT>
0

> <PUBCHEM_BOND_DEF_STEREO_COUNT>
1

> <PUBCHEM_BOND_UDEF_STEREO_COUNT>
0

> <PUBCHEM_ISOTOPIC_ATOM_COUNT>
0

> <PUBCHEM_COMPONENT_COUNT>
1

> <PUBCHEM_CACTVS_TAUTO_COUNT>
2

> <PUBCHEM_CONFORMER_ID>
00633FF800000001

> <PUBCHEM_MMFF94_ENERGY>
12.9006

> <PUBCHEM_FEATURE_SELFOVERLAP>
15.223

> <PUBCHEM_SHAPE_FINGERPRINT>
10980938 120 18335695022817689794
11031198 65 18341894052527622063
11206711 2 18054504987381185662
122479 349 18186524327590486441
13380535 21 18408323310730292099
13693222 15 9151174268011451973
14350558 41 11599718501979775505
14897335 6 18410568513605865106
15279308 100 18271240620547701944
15375462 478 8502378810538366264
15775835 57 18408323293539665653
16945 1 18131075960902957154
1741750 31 18341328980596541090
177051 138 9871752394687470332
17844478 74 18044106871441499355
18186145 218 18341612568792048469
18619055 16 18342177765298442370
200 152 8502375495098056809
20645477 56 18338799034532672816
20653085 51 18261679254468558290
20671657 1 18339066138395603050
20711983 171 18409447024535470774
20820808 20 18408885118385670394
20871999 31 18128817619379462942
21501502 16 18336535114247600598
21524375 3 18336537257689319955
22926399 65 18338800125691697372
231179 274 17677042465018705389
23402655 69 18271520918988554541
23557571 272 18197792191645511230
23559900 14 18130509734565079376
25 1 18411981342871011475
2748010 2 17770215273888168616
76465 3 10735883837269695788
7832392 63 18337388352571683596
81228 2 17905590452809832035

> <PUBCHEM_SHAPE_MULTIPOLES>
261.66
6.65
2.13
0.9
2.56
0.88
0.03
-4.44
-1.21
0.07
-0.31
0.06
-0.09
-0.23

> <PUBCHEM_SHAPE_SELFOVERLAP>
516.575

> <PUBCHEM_SHAPE_VOLUME>
155.8

> <PUBCHEM_COORDINATE_TYPE>
2
5
10

$$$$
