65288
  -OEChem-11232108593D

 16 16  0     0  0  0  0  0  0999 V2000
    1.5114    1.3697    0.0013 S   0  0  0  0  0  0  0  0  0  0  0  0
   -1.4693    1.4846   -0.0025 O   0  0  0  0  0  0  0  0  0  0  0  0
    0.8867   -1.1387   -0.0013 N   0  0  0  0  0  0  0  0  0  0  0  0
   -1.9678   -0.8546   -0.0049 C   0  0  0  0  0  0  0  0  0  0  0  0
   -1.0157    0.3384   -0.0023 C   0  0  0  0  0  0  0  0  0  0  0  0
   -3.4308   -0.4397    0.0072 C   0  0  0  0  0  0  0  0  0  0  0  0
    0.4322    0.0670   -0.0006 C   0  0  0  0  0  0  0  0  0  0  0  0
    2.7882    0.2247    0.0028 C   0  0  0  0  0  0  0  0  0  0  0  0
    2.2651   -1.0513    0.0003 C   0  0  0  0  0  0  0  0  0  0  0  0
   -1.7685   -1.4535   -0.9003 H   0  0  0  0  0  0  0  0  0  0  0  0
   -1.7584   -1.4659    0.8798 H   0  0  0  0  0  0  0  0  0  0  0  0
   -3.6759    0.1635   -0.8732 H   0  0  0  0  0  0  0  0  0  0  0  0
   -4.0763   -1.3234    0.0064 H   0  0  0  0  0  0  0  0  0  0  0  0
   -3.6641    0.1534    0.8976 H   0  0  0  0  0  0  0  0  0  0  0  0
    3.8251    0.5286    0.0046 H   0  0  0  0  0  0  0  0  0  0  0  0
    2.8510   -1.9606    0.0001 H   0  0  0  0  0  0  0  0  0  0  0  0
  1  7  1  0  0  0  0
  1  8  1  0  0  0  0
  2  5  2  0  0  0  0
  3  7  2  0  0  0  0
  3  9  1  0  0  0  0
  4  5  1  0  0  0  0
  4  6  1  0  0  0  0
  4 10  1  0  0  0  0
  4 11  1  0  0  0  0
  5  7  1  0  0  0  0
  6 12  1  0  0  0  0
  6 13  1  0  0  0  0
  6 14  1  0  0  0  0
  8  9  2  0  0  0  0
  8 15  1  0  0  0  0
  9 16  1  0  0  0  0
M  END
> <PUBCHEM_COMPOUND_CID>
65288

> <PUBCHEM_CONFORMER_RMSD>
0.4

> <PUBCHEM_CONFORMER_DIVERSEORDER>
1
14
6
13
5
7
15
8
3
12
16
4
11
2
9
10

> <PUBCHEM_MMFF94_PARTIAL_CHARGES>
10
1 -0.08
15 0.15
16 0.15
2 -0.57
3 -0.57
4 0.06
5 0.59
7 0.29
8 -0.11
9 0.08

> <PUBCHEM_EFFECTIVE_ROTOR_COUNT>
2

> <PUBCHEM_PHARMACOPHORE_FEATURES>
4
1 2 acceptor
1 3 acceptor
1 6 hydrophobe
5 1 3 7 8 9 rings

> <PUBCHEM_HEAVY_ATOM_COUNT>
9

> <PUBCHEM_ATOM_DEF_STEREO_COUNT>
0

> <PUBCHEM_ATOM_UDEF_STEREO_COUNT>
0

> <PUBCHEM_BOND_DEF_STEREO_COUNT>
0

> <PUBCHEM_BOND_UDEF_STEREO_COUNT>
0

> <PUBCHEM_ISOTOPIC_ATOM_COUNT>
0

> <PUBCHEM_COMPONENT_COUNT>
1

> <PUBCHEM_CACTVS_TAUTO_COUNT>
2

> <PUBCHEM_CONFORMER_ID>
0000FF0800000001

> <PUBCHEM_MMFF94_ENERGY>
7.123

> <PUBCHEM_FEATURE_SELFOVERLAP>
20.297

> <PUBCHEM_SHAPE_FINGERPRINT>
10857977 72 18339632421211939152
11062470 55 17385439942697175087
12897270 3 18409448115383245703
12932764 1 17489297594579490637
14325111 11 18410856572535318913
19973954 147 18410856525375367036
20201158 50 18335700559220704803
21040471 1 18410855507942527236
23552423 10 18261395524576001310
29004967 10 18412545388352297274
5084963 1 18343866623495264536

> <PUBCHEM_SHAPE_MULTIPOLES>
178.21
4.61
1.41
0.61
2.24
0.24
0
-0.68
-0.01
-0.32
0
-0.02
0.01
0

> <PUBCHEM_SHAPE_SELFOVERLAP>
349.166

> <PUBCHEM_SHAPE_VOLUME>
108.4

> <PUBCHEM_COORDINATE_TYPE>
2
5
10

$$$$
