65287
  -OEChem-11232109053D

 34 34  0     0  0  0  0  0  0999 V2000
    1.1377   -0.9231   -0.2140 O   0  0  0  0  0  0  0  0  0  0  0  0
   -0.7595   -1.6954    0.8465 O   0  0  0  0  0  0  0  0  0  0  0  0
    3.3614   -1.8312   -0.0376 C   0  0  0  0  0  0  0  0  0  0  0  0
    1.9071   -1.9473    0.4028 C   0  0  0  0  0  0  0  0  0  0  0  0
   -0.8643    0.2302   -0.6375 C   0  0  0  0  0  0  0  0  0  0  0  0
   -2.3344    0.3482   -0.3285 C   0  0  0  0  0  0  0  0  0  0  0  0
    3.9643   -0.5183    0.3762 C   0  0  0  0  0  0  0  0  0  0  0  0
   -0.1974   -0.9092    0.0961 C   0  0  0  0  0  0  0  0  0  0  0  0
    5.0677    1.6878   -0.0727 C   0  0  0  0  0  0  0  0  0  0  0  0
    4.4581    0.3815   -0.4873 C   0  0  0  0  0  0  0  0  0  0  0  0
   -3.2525   -0.3394   -1.1088 C   0  0  0  0  0  0  0  0  0  0  0  0
   -2.7472    1.1420    0.7316 C   0  0  0  0  0  0  0  0  0  0  0  0
   -4.6134   -0.2305   -0.8229 C   0  0  0  0  0  0  0  0  0  0  0  0
   -4.1081    1.2508    1.0175 C   0  0  0  0  0  0  0  0  0  0  0  0
    4.0217    2.7894   -0.0016 C   0  0  0  0  0  0  0  0  0  0  0  0
   -5.0412    0.5645    0.2402 C   0  0  0  0  0  0  0  0  0  0  0  0
    3.9453   -2.6444    0.4077 H   0  0  0  0  0  0  0  0  0  0  0  0
    3.4178   -1.9450   -1.1271 H   0  0  0  0  0  0  0  0  0  0  0  0
    1.5163   -2.9264    0.1014 H   0  0  0  0  0  0  0  0  0  0  0  0
    1.8317   -1.8578    1.4936 H   0  0  0  0  0  0  0  0  0  0  0  0
   -0.7244    0.0800   -1.7148 H   0  0  0  0  0  0  0  0  0  0  0  0
   -0.3563    1.1639   -0.3673 H   0  0  0  0  0  0  0  0  0  0  0  0
    4.0091   -0.3130    1.4430 H   0  0  0  0  0  0  0  0  0  0  0  0
    5.5565    1.5876    0.9038 H   0  0  0  0  0  0  0  0  0  0  0  0
    5.8517    1.9601   -0.7882 H   0  0  0  0  0  0  0  0  0  0  0  0
    4.4103    0.1827   -1.5549 H   0  0  0  0  0  0  0  0  0  0  0  0
   -2.9295   -0.9629   -1.9377 H   0  0  0  0  0  0  0  0  0  0  0  0
   -2.0284    1.6787    1.3443 H   0  0  0  0  0  0  0  0  0  0  0  0
   -5.3399   -0.7653   -1.4276 H   0  0  0  0  0  0  0  0  0  0  0  0
   -4.4414    1.8693    1.8458 H   0  0  0  0  0  0  0  0  0  0  0  0
    4.4899    3.7363    0.2858 H   0  0  0  0  0  0  0  0  0  0  0  0
    3.2482    2.5574    0.7383 H   0  0  0  0  0  0  0  0  0  0  0  0
    3.5332    2.9345   -0.9711 H   0  0  0  0  0  0  0  0  0  0  0  0
   -6.1008    0.6490    0.4631 H   0  0  0  0  0  0  0  0  0  0  0  0
  1  4  1  0  0  0  0
  1  8  1  0  0  0  0
  2  8  2  0  0  0  0
  3  4  1  0  0  0  0
  3  7  1  0  0  0  0
  3 17  1  0  0  0  0
  3 18  1  0  0  0  0
  4 19  1  0  0  0  0
  4 20  1  0  0  0  0
  5  6  1  0  0  0  0
  5  8  1  0  0  0  0
  5 21  1  0  0  0  0
  5 22  1  0  0  0  0
  6 11  2  0  0  0  0
  6 12  1  0  0  0  0
  7 10  2  3  0  0  0
  7 23  1  0  0  0  0
  9 10  1  0  0  0  0
  9 15  1  0  0  0  0
  9 24  1  0  0  0  0
  9 25  1  0  0  0  0
 10 26  1  0  0  0  0
 11 13  1  0  0  0  0
 11 27  1  0  0  0  0
 12 14  2  0  0  0  0
 12 28  1  0  0  0  0
 13 16  2  0  0  0  0
 13 29  1  0  0  0  0
 14 16  1  0  0  0  0
 14 30  1  0  0  0  0
 15 31  1  0  0  0  0
 15 32  1  0  0  0  0
 15 33  1  0  0  0  0
 16 34  1  0  0  0  0
M  END
> <PUBCHEM_COMPOUND_CID>
65287

> <PUBCHEM_CONFORMER_RMSD>
0.8

> <PUBCHEM_CONFORMER_DIVERSEORDER>
1
89
168
144
47
139
107
186
16
63
130
8
137
69
155
6
83
195
2
103
133
37
82
118
68
77
108
122
188
117
194
185
5
35
56
158
53
92
151
166
78
172
48
87
136
61
121
90
84
97
28
38
162
19
24
157
39
76
109
58
175
52
145
57
4
42
173
181
159
14
3
192
106
85
96
148
165
199
7
198
95
140
143
125
174
18
45
120
193
124
111
105
23
59
32
141
189
9
128
30
17
93
88
40
25
74
110
191
51
132
142
55
112
27
91
176
29
116
102
135
138
104
98
43
187
67
177
26
146
12
182
167
170
164
100
34
180
21
86
149
115
178
160
150
75
99
41
22
190
197
13
134
169
73
114
147
171
119
33
72
123
101
44
153
54
126
60
11
66
20
129
94
49
113
161
152
127
50
131
36
196
15
65
64
183
81
154
71
31
10
156
80
184
179
79
46
62
163
70

> <PUBCHEM_MMFF94_PARTIAL_CHARGES>
22
1 -0.43
10 -0.29
11 -0.15
12 -0.15
13 -0.15
14 -0.15
16 -0.15
2 -0.57
23 0.15
26 0.15
27 0.15
28 0.15
29 0.15
3 0.14
30 0.15
34 0.15
4 0.28
5 0.2
6 -0.14
7 -0.29
8 0.66
9 0.14

> <PUBCHEM_EFFECTIVE_ROTOR_COUNT>
7

> <PUBCHEM_PHARMACOPHORE_FEATURES>
3
1 15 hydrophobe
1 2 acceptor
6 6 11 12 13 14 16 rings

> <PUBCHEM_HEAVY_ATOM_COUNT>
16

> <PUBCHEM_ATOM_DEF_STEREO_COUNT>
0

> <PUBCHEM_ATOM_UDEF_STEREO_COUNT>
0

> <PUBCHEM_BOND_DEF_STEREO_COUNT>
0

> <PUBCHEM_BOND_UDEF_STEREO_COUNT>
1

> <PUBCHEM_ISOTOPIC_ATOM_COUNT>
0

> <PUBCHEM_COMPONENT_COUNT>
1

> <PUBCHEM_CACTVS_TAUTO_COUNT>
1

> <PUBCHEM_CONFORMER_ID>
0000FF0700000001

> <PUBCHEM_MMFF94_ENERGY>
20.5102

> <PUBCHEM_FEATURE_SELFOVERLAP>
15.223

> <PUBCHEM_SHAPE_FINGERPRINT>
10465860 250 14418139500068114519
10615611 76 17916045515256861633
10912923 1 18272365339523518323
11128504 68 18131348618037430996
12236239 1 18343018857681839605
12616971 3 18339917121746349934
12616999 72 16917068832983824414
12839892 36 13839985516921903417
13897977 58 17988642974199329505
13955234 65 18189050911302676266
1420 369 8790892878213038456
14251732 16 18336830892050839531
14251764 75 18120947358694445420
14528608 73 18341893008708060100
14774955 27 18334575789269997876
15239154 128 18270962349500763945
15342168 16 18334579087730937412
16079462 125 17385994036865980045
17834072 32 18336829822651143668
17834072 33 18343298176036490863
17844677 252 18270126690719994511
204376 136 18113902654028506915
20621476 91 16515982470364786299
21033648 29 17240471494880247420
21315764 119 16343157826543867436
21652331 79 18410292488848084324
22079108 93 18260271858395219635
2297311 6 16128656362539377609
23559900 14 18410009897686642850
245318 6 17753062862615644252
34797466 226 17775292681019840197
4463277 69 9439407930319489114
474 4 18408884066271747824
5104073 3 18187082875456014546
543368 44 18130784598626999625
633830 44 18341614746277716223
960060 61 11167938100172910658

> <PUBCHEM_SHAPE_MULTIPOLES>
317.53
12.38
2.24
0.94
2.02
0.59
-0.02
5.67
-0.44
3.38
0.34
-0.75
0.01
-0.89

> <PUBCHEM_SHAPE_SELFOVERLAP>
634.787

> <PUBCHEM_SHAPE_VOLUME>
186.6

> <PUBCHEM_COORDINATE_TYPE>
2
5
10

$$$$
