6536892
  -OEChem-11232109153D

 30 29  0     0  0  0  0  0  0999 V2000
    3.0022   -0.6668   -1.1781 O   0  0  0  0  0  0  0  0  0  0  0  0
   -0.3874    1.5129    0.8395 C   0  0  0  0  0  0  0  0  0  0  0  0
   -1.5674    1.5675   -0.1400 C   0  0  0  0  0  0  0  0  0  0  0  0
    0.8782    0.9467    0.2289 C   0  0  0  0  0  0  0  0  0  0  0  0
   -1.9374    0.2114   -0.6746 C   0  0  0  0  0  0  0  0  0  0  0  0
   -2.8047   -0.6770   -0.1535 C   0  0  0  0  0  0  0  0  0  0  0  0
    1.4039    1.7242   -0.9530 C   0  0  0  0  0  0  0  0  0  0  0  0
    1.5388   -0.1522    0.6383 C   0  0  0  0  0  0  0  0  0  0  0  0
   -3.1289   -2.0205   -0.7418 C   0  0  0  0  0  0  0  0  0  0  0  0
   -3.5265   -0.3712    1.1319 C   0  0  0  0  0  0  0  0  0  0  0  0
    2.7808   -0.7065    0.0283 C   0  0  0  0  0  0  0  0  0  0  0  0
    3.7484   -1.3682    0.9740 C   0  0  0  0  0  0  0  0  0  0  0  0
   -0.1792    2.5257    1.2064 H   0  0  0  0  0  0  0  0  0  0  0  0
   -0.6694    0.9223    1.7205 H   0  0  0  0  0  0  0  0  0  0  0  0
   -2.4246    2.0456    0.3468 H   0  0  0  0  0  0  0  0  0  0  0  0
   -1.3314    2.2192   -0.9905 H   0  0  0  0  0  0  0  0  0  0  0  0
   -1.4298   -0.0676   -1.5973 H   0  0  0  0  0  0  0  0  0  0  0  0
    0.9911    1.3325   -1.8879 H   0  0  0  0  0  0  0  0  0  0  0  0
    2.4963    1.7272   -1.0117 H   0  0  0  0  0  0  0  0  0  0  0  0
    1.1183    2.7797   -0.8742 H   0  0  0  0  0  0  0  0  0  0  0  0
    1.1792   -0.6857    1.5147 H   0  0  0  0  0  0  0  0  0  0  0  0
   -2.5822   -2.1939   -1.6745 H   0  0  0  0  0  0  0  0  0  0  0  0
   -4.1987   -2.0920   -0.9629 H   0  0  0  0  0  0  0  0  0  0  0  0
   -2.8606   -2.8194   -0.0433 H   0  0  0  0  0  0  0  0  0  0  0  0
   -3.3898   -1.1967    1.8396 H   0  0  0  0  0  0  0  0  0  0  0  0
   -4.5992   -0.2630    0.9397 H   0  0  0  0  0  0  0  0  0  0  0  0
   -3.1868    0.5320    1.6426 H   0  0  0  0  0  0  0  0  0  0  0  0
    4.7669   -1.0657    0.7152 H   0  0  0  0  0  0  0  0  0  0  0  0
    3.5596   -1.0636    2.0072 H   0  0  0  0  0  0  0  0  0  0  0  0
    3.6484   -2.4535    0.8934 H   0  0  0  0  0  0  0  0  0  0  0  0
  1 11  2  0  0  0  0
  2  3  1  0  0  0  0
  2  4  1  0  0  0  0
  2 13  1  0  0  0  0
  2 14  1  0  0  0  0
  3  5  1  0  0  0  0
  3 15  1  0  0  0  0
  3 16  1  0  0  0  0
  4  7  1  0  0  0  0
  4  8  2  0  0  0  0
  5  6  2  0  0  0  0
  5 17  1  0  0  0  0
  6  9  1  0  0  0  0
  6 10  1  0  0  0  0
  7 18  1  0  0  0  0
  7 19  1  0  0  0  0
  7 20  1  0  0  0  0
  8 11  1  0  0  0  0
  8 21  1  0  0  0  0
  9 22  1  0  0  0  0
  9 23  1  0  0  0  0
  9 24  1  0  0  0  0
 10 25  1  0  0  0  0
 10 26  1  0  0  0  0
 10 27  1  0  0  0  0
 11 12  1  0  0  0  0
 12 28  1  0  0  0  0
 12 29  1  0  0  0  0
 12 30  1  0  0  0  0
M  END
> <PUBCHEM_COMPOUND_CID>
6536892

> <PUBCHEM_CONFORMER_RMSD>
0.6

> <PUBCHEM_CONFORMER_DIVERSEORDER>
10
45
80
7
69
64
29
39
79
3
44
23
24
1
73
13
58
38
81
83
70
49
9
61
35
17
2
48
68
16
25
30
47
55
19
28
18
72
26
62
46
14
67
65
40
34
20
41
15
57
32
11
42
33
77
71
21
60
53
37
36
54
4
63
74
43
31
76
22
66
12
52
51
59
5
82
56
6
8
78
75
50
27

> <PUBCHEM_MMFF94_PARTIAL_CHARGES>
14
1 -0.57
10 0.14
11 0.49
12 0.06
17 0.15
2 0.14
21 0.15
3 0.14
4 -0.28
5 -0.29
6 -0.28
7 0.14
8 -0.14
9 0.14

> <PUBCHEM_EFFECTIVE_ROTOR_COUNT>
4

> <PUBCHEM_PHARMACOPHORE_FEATURES>
4
1 1 acceptor
1 7 hydrophobe
3 6 9 10 hydrophobe
4 2 3 4 5 hydrophobe

> <PUBCHEM_HEAVY_ATOM_COUNT>
12

> <PUBCHEM_ATOM_DEF_STEREO_COUNT>
0

> <PUBCHEM_ATOM_UDEF_STEREO_COUNT>
0

> <PUBCHEM_BOND_DEF_STEREO_COUNT>
1

> <PUBCHEM_BOND_UDEF_STEREO_COUNT>
0

> <PUBCHEM_ISOTOPIC_ATOM_COUNT>
0

> <PUBCHEM_COMPONENT_COUNT>
1

> <PUBCHEM_CACTVS_TAUTO_COUNT>
8

> <PUBCHEM_CONFORMER_ID>
0063BEBC0000000A

> <PUBCHEM_MMFF94_ENERGY>
17.9696

> <PUBCHEM_FEATURE_SELFOVERLAP>
20.32

> <PUBCHEM_SHAPE_FINGERPRINT>
10149128 76 8646503928721061069
11769659 78 18409161117094481532
12162725 195 8646226808920400853
14123260 362 9079113384202882547
14128692 85 18409450288695038012
15375462 189 18269565003582085865
18186145 218 14345797115196239748
18342897 69 18412263917480630321
18522851 12 18196390318815627855
19422 9 18339370776610858899
19766037 51 18040444321110722187
20281407 28 18343018887045107505
20361792 2 18259703393403077213
20645477 70 18264477572260782039
20653085 51 11314848173708024977
20671657 53 18040995141791675916
20711985 344 17750493127857927805
21713013 43 16298391292302506419
22959321 94 18341047432579227074
230 275 10015590518559695024
232386 152 18201722859594067605
23402539 116 17241044280894240930
449060 23 18341614797774774822
5902787 121 18341884191235153464

> <PUBCHEM_SHAPE_MULTIPOLES>
241.09
6.56
1.98
1.15
0.51
0.11
0.01
-4.41
0.49
-0.23
-0.22
0.04
-0.06
-0.72

> <PUBCHEM_SHAPE_SELFOVERLAP>
453.317

> <PUBCHEM_SHAPE_VOLUME>
150.8

> <PUBCHEM_COORDINATE_TYPE>
2
5
10

$$$$
