6537958
  -OEChem-11232109443D

 28 27  0     0  0  0  0  0  0999 V2000
   -0.9007   -0.0660   -0.3211 O   0  0  0  0  0  0  0  0  0  0  0  0
   -2.4620   -1.5819    0.4452 O   0  0  0  0  0  0  0  0  0  0  0  0
   -4.5550    0.2941    0.2155 C   0  0  0  0  0  0  0  0  0  0  0  0
   -3.1233    0.6830   -0.1449 C   0  0  0  0  0  0  0  0  0  0  0  0
   -5.5079    1.4677    0.0576 C   0  0  0  0  0  0  0  0  0  0  0  0
   -2.1607   -0.4680    0.0392 C   0  0  0  0  0  0  0  0  0  0  0  0
    0.1208   -1.0462   -0.2027 C   0  0  0  0  0  0  0  0  0  0  0  0
    1.4183   -0.4426   -0.6334 C   0  0  0  0  0  0  0  0  0  0  0  0
    2.4916   -0.3438    0.1649 C   0  0  0  0  0  0  0  0  0  0  0  0
    3.7443    0.2366   -0.2627 C   0  0  0  0  0  0  0  0  0  0  0  0
    4.8174    0.3351    0.5359 C   0  0  0  0  0  0  0  0  0  0  0  0
    6.1173    0.9321    0.1066 C   0  0  0  0  0  0  0  0  0  0  0  0
   -4.8890   -0.5336   -0.4216 H   0  0  0  0  0  0  0  0  0  0  0  0
   -4.5961   -0.0669    1.2502 H   0  0  0  0  0  0  0  0  0  0  0  0
   -2.7913    1.5088    0.4943 H   0  0  0  0  0  0  0  0  0  0  0  0
   -3.0798    1.0020   -1.1923 H   0  0  0  0  0  0  0  0  0  0  0  0
   -6.5270    1.1665    0.3197 H   0  0  0  0  0  0  0  0  0  0  0  0
   -5.2203    2.2974    0.7112 H   0  0  0  0  0  0  0  0  0  0  0  0
   -5.5157    1.8302   -0.9753 H   0  0  0  0  0  0  0  0  0  0  0  0
    0.1705   -1.4009    0.8336 H   0  0  0  0  0  0  0  0  0  0  0  0
   -0.1093   -1.8957   -0.8562 H   0  0  0  0  0  0  0  0  0  0  0  0
    1.4675   -0.0773   -1.6569 H   0  0  0  0  0  0  0  0  0  0  0  0
    2.4361   -0.7133    1.1857 H   0  0  0  0  0  0  0  0  0  0  0  0
    3.8008    0.6055   -1.2837 H   0  0  0  0  0  0  0  0  0  0  0  0
    4.7708   -0.0310    1.5588 H   0  0  0  0  0  0  0  0  0  0  0  0
    6.0928    1.2787   -0.9314 H   0  0  0  0  0  0  0  0  0  0  0  0
    6.3640    1.7857    0.7453 H   0  0  0  0  0  0  0  0  0  0  0  0
    6.9164    0.1904    0.1997 H   0  0  0  0  0  0  0  0  0  0  0  0
  1  6  1  0  0  0  0
  1  7  1  0  0  0  0
  2  6  2  0  0  0  0
  3  4  1  0  0  0  0
  3  5  1  0  0  0  0
  3 13  1  0  0  0  0
  3 14  1  0  0  0  0
  4  6  1  0  0  0  0
  4 15  1  0  0  0  0
  4 16  1  0  0  0  0
  5 17  1  0  0  0  0
  5 18  1  0  0  0  0
  5 19  1  0  0  0  0
  7  8  1  0  0  0  0
  7 20  1  0  0  0  0
  7 21  1  0  0  0  0
  8  9  2  0  0  0  0
  8 22  1  0  0  0  0
  9 10  1  0  0  0  0
  9 23  1  0  0  0  0
 10 11  2  0  0  0  0
 10 24  1  0  0  0  0
 11 12  1  0  0  0  0
 11 25  1  0  0  0  0
 12 26  1  0  0  0  0
 12 27  1  0  0  0  0
 12 28  1  0  0  0  0
M  END
> <PUBCHEM_COMPOUND_CID>
6537958

> <PUBCHEM_CONFORMER_RMSD>
0.6

> <PUBCHEM_CONFORMER_DIVERSEORDER>
1
289
118
90
316
314
346
309
237
223
357
106
174
359
166
244
160
327
179
113
186
362
64
344
26
108
279
348
96
266
210
347
264
163
329
331
228
27
114
172
95
350
156
354
293
345
140
325
277
234
292
187
107
37
320
165
282
135
351
367
303
65
131
168
38
295
34
253
278
238
317
246
115
7
340
29
321
128
322
305
170
259
152
349
19
69
312
111
109
368
265
307
6
194
157
125
105
200
178
176
230
205
239
145
286
119
75
287
13
355
33
91
254
256
274
138
198
147
10
240
315
262
169
212
352
371
353
148
297
328
144
207
249
258
261
43
285
319
45
142
161
283
370
185
243
183
366
201
2
206
102
101
42
369
171
133
296
93
219
233
334
248
291
284
21
324
267
47
175
360
28
51
121
124
364
313
338
146
149
218
241
301
337
226
330
222
268
199
24
326
299
341
88
269
98
177
208
184
139
182
18
214
311
100
79
217
49
3
270
122
211
137
339
204
333
365
30
281
252
306
236
192
260
141
56
84
32
302
87
257
112
224
126
76
231
203
110
41
308
221
23
280
173
193
336
143
225
54
220
40
273
180
162
5
71
46
127
35
36
74
70
130
323
11
116
159
213
232
44
332
155
342
60
78
245
216
158
300
335
66
53
77
251
104
215
134
356
132
59
97
154
190
358
275
55
363
167
86
58
150
39
117
288
83
247
271
72
50
235
129
250
227
99
14
164
209
202
92
89
17
120
188
15
189
82
12
361
242
73
63
80
31
290
229
22
298
68
103
4
272
310
57
61
81
9
16
67
62
8
196
318
20
52
294
263
136
48
25
191
195
85
304
151
123
255
94
276
153
197
181
343

> <PUBCHEM_MMFF94_PARTIAL_CHARGES>
14
1 -0.43
10 -0.15
11 -0.29
12 0.14
2 -0.57
22 0.15
23 0.15
24 0.15
25 0.15
4 0.06
6 0.66
7 0.42
8 -0.29
9 -0.15

> <PUBCHEM_EFFECTIVE_ROTOR_COUNT>
6

> <PUBCHEM_PHARMACOPHORE_FEATURES>
3
1 12 hydrophobe
1 2 acceptor
1 5 hydrophobe

> <PUBCHEM_HEAVY_ATOM_COUNT>
12

> <PUBCHEM_ATOM_DEF_STEREO_COUNT>
0

> <PUBCHEM_ATOM_UDEF_STEREO_COUNT>
0

> <PUBCHEM_BOND_DEF_STEREO_COUNT>
2

> <PUBCHEM_BOND_UDEF_STEREO_COUNT>
0

> <PUBCHEM_ISOTOPIC_ATOM_COUNT>
0

> <PUBCHEM_COMPONENT_COUNT>
1

> <PUBCHEM_CACTVS_TAUTO_COUNT>
1

> <PUBCHEM_CONFORMER_ID>
0063C2E600000001

> <PUBCHEM_MMFF94_ENERGY>
3.9848

> <PUBCHEM_FEATURE_SELFOVERLAP>
15.223

> <PUBCHEM_SHAPE_FINGERPRINT>
10014705 185 18342737429511990607
100836 57 18413673513099847260
10354089 29 17894351081857739532
114248 4 12031785868586117218
117890 112 18411418388617620976
12714333 28 16917347030631222072
13214271 11 18342175600392299871
13288520 33 8935000374033894851
13690532 89 8574711303984454764
13964095 4 11311782752738472547
14252887 29 15140673649487445050
14350574 20 9223226351785745566
14455015 7 12685087069160175464
15048467 5 18411699876532039520
15501527 16 18412265046983260617
15501527 24 13039182619605133260
17834072 33 11095878281141606162
17834072 8 17917438610090878462
17834076 25 18344145890658396276
18342897 14 18410009957715262912
187816 3 14045741525710515495
20281389 69 18408319978115407712
20374829 77 9367345925054820141
20432913 95 13695584425773884752
20605781 2 18273214196785780300
20645477 56 18411419509867563047
20645477 70 16988571135042427990
20724930 31 11674878892483528534
20767249 213 18412262839538953365
20871999 31 16701724038907310703
21119208 17 14189571940253522256
212847 35 18343861109311144552
23402539 116 18271801345570966150
23402655 69 17060619975403989612
26918003 58 14779267514073388941
351380 3 8502652597386947640
42 15 14634871937657935471
42788 4 18342175570401141148
449060 50 18334295344536734063
7062679 6 18409736144554513796

> <PUBCHEM_SHAPE_MULTIPOLES>
235.22
14.01
1.23
0.7
5.13
0.04
0.01
-7.56
-1.46
-0.92
-0.06
0.14
0.02
0.24

> <PUBCHEM_SHAPE_SELFOVERLAP>
437.161

> <PUBCHEM_SHAPE_VOLUME>
147.6

> <PUBCHEM_COORDINATE_TYPE>
2
5
10

$$$$
