6537093
  -OEChem-11232109163D

 25 25  0     0  0  0  0  0  0999 V2000
    2.2081    0.2937    0.0003 O   0  0  0  0  0  0  0  0  0  0  0  0
   -2.7056    1.1564   -0.0337 O   0  0  0  0  0  0  0  0  0  0  0  0
    1.4282   -1.8807   -0.0206 O   0  0  0  0  0  0  0  0  0  0  0  0
    4.4986    1.0171    0.0207 C   0  0  0  0  0  0  0  0  0  0  0  0
    3.5592   -0.1790    0.0059 C   0  0  0  0  0  0  0  0  0  0  0  0
    5.9558    0.5912    0.0123 C   0  0  0  0  0  0  0  0  0  0  0  0
   -2.5066   -0.1769   -0.0016 C   0  0  0  0  0  0  0  0  0  0  0  0
    1.2506   -0.6730   -0.0131 C   0  0  0  0  0  0  0  0  0  0  0  0
   -1.1869   -0.7366   -0.0143 C   0  0  0  0  0  0  0  0  0  0  0  0
   -0.0679    0.0028   -0.0174 C   0  0  0  0  0  0  0  0  0  0  0  0
   -3.6824   -0.8664    0.0400 C   0  0  0  0  0  0  0  0  0  0  0  0
   -4.6983    0.1188    0.0334 C   0  0  0  0  0  0  0  0  0  0  0  0
   -4.0529    1.3326   -0.0120 C   0  0  0  0  0  0  0  0  0  0  0  0
    4.2929    1.6570   -0.8458 H   0  0  0  0  0  0  0  0  0  0  0  0
    4.2953    1.6333    0.9047 H   0  0  0  0  0  0  0  0  0  0  0  0
    3.7333   -0.7841   -0.8916 H   0  0  0  0  0  0  0  0  0  0  0  0
    3.7224   -0.7979    0.8960 H   0  0  0  0  0  0  0  0  0  0  0  0
    6.1887    0.0072   -0.8838 H   0  0  0  0  0  0  0  0  0  0  0  0
    6.6080    1.4700    0.0238 H   0  0  0  0  0  0  0  0  0  0  0  0
    6.1914   -0.0182    0.8906 H   0  0  0  0  0  0  0  0  0  0  0  0
   -1.1198   -1.8220   -0.0115 H   0  0  0  0  0  0  0  0  0  0  0  0
   -0.0889    1.0877   -0.0156 H   0  0  0  0  0  0  0  0  0  0  0  0
   -3.8133   -1.9391    0.0711 H   0  0  0  0  0  0  0  0  0  0  0  0
   -5.7672   -0.0363    0.0585 H   0  0  0  0  0  0  0  0  0  0  0  0
   -4.3904    2.3586   -0.0331 H   0  0  0  0  0  0  0  0  0  0  0  0
  1  5  1  0  0  0  0
  1  8  1  0  0  0  0
  2  7  1  0  0  0  0
  2 13  1  0  0  0  0
  3  8  2  0  0  0  0
  4  5  1  0  0  0  0
  4  6  1  0  0  0  0
  4 14  1  0  0  0  0
  4 15  1  0  0  0  0
  5 16  1  0  0  0  0
  5 17  1  0  0  0  0
  6 18  1  0  0  0  0
  6 19  1  0  0  0  0
  6 20  1  0  0  0  0
  7  9  1  0  0  0  0
  7 11  2  0  0  0  0
  8 10  1  0  0  0  0
  9 10  2  0  0  0  0
  9 21  1  0  0  0  0
 10 22  1  0  0  0  0
 11 12  1  0  0  0  0
 11 23  1  0  0  0  0
 12 13  2  0  0  0  0
 12 24  1  0  0  0  0
 13 25  1  0  0  0  0
M  END
> <PUBCHEM_COMPOUND_CID>
6537093

> <PUBCHEM_CONFORMER_RMSD>
0.6

> <PUBCHEM_CONFORMER_DIVERSEORDER>
1
70
21
67
7
26
18
68
25
15
81
76
34
66
61
80
23
64
71
35
40
2
46
79
59
62
52
6
77
55
72
45
9
43
4
60
39
16
48
29
42
78
38
27
51
54
65
63
19
74
41
53
13
32
50
73
36
24
14
75
12
37
82
5
49
30
33
31
8
11
3
57
10
20
69
28
58
47
22
44
17
56

> <PUBCHEM_MMFF94_PARTIAL_CHARGES>
16
1 -0.43
10 -0.14
11 -0.15
12 -0.15
13 -0.01
2 -0.28
21 0.15
22 0.15
23 0.15
24 0.15
25 0.15
3 -0.57
5 0.28
7 0.09
8 0.71
9 -0.11

> <PUBCHEM_EFFECTIVE_ROTOR_COUNT>
5

> <PUBCHEM_PHARMACOPHORE_FEATURES>
4
1 2 acceptor
1 3 acceptor
1 6 hydrophobe
5 2 7 11 12 13 rings

> <PUBCHEM_HEAVY_ATOM_COUNT>
13

> <PUBCHEM_ATOM_DEF_STEREO_COUNT>
0

> <PUBCHEM_ATOM_UDEF_STEREO_COUNT>
0

> <PUBCHEM_BOND_DEF_STEREO_COUNT>
1

> <PUBCHEM_BOND_UDEF_STEREO_COUNT>
0

> <PUBCHEM_ISOTOPIC_ATOM_COUNT>
0

> <PUBCHEM_COMPONENT_COUNT>
1

> <PUBCHEM_CACTVS_TAUTO_COUNT>
1

> <PUBCHEM_CONFORMER_ID>
0063BF8500000001

> <PUBCHEM_MMFF94_ENERGY>
13.0883

> <PUBCHEM_FEATURE_SELFOVERLAP>
20.297

> <PUBCHEM_SHAPE_FINGERPRINT>
10014705 185 18261107436077869661
100836 57 18408327700650968876
114248 4 16415763046128463516
12815109 37 9367350331812643588
13081056 2 18342176682919308400
13214271 11 18334575763336572767
13740256 8 9367339345296849948
13897977 58 18411419514331484725
14123238 8 18187363242188405844
14252887 29 13045934682363106456
14325111 11 18338517439724022287
14350574 20 11887665200068740269
15501527 16 18413111641262423153
17834072 33 18131346423230255390
17834076 25 18410855468723384144
187816 3 14333132987812946910
20279233 1 13623530134671016891
20281389 69 18260827103414980780
20374829 77 10592046847284102548
20645477 56 18411982455810853601
20645477 70 17489317334972221134
20767249 213 18333731329684663277
20828058 44 7853857182794618688
212847 35 18410011066217972840
23402539 116 17894624885521706255
23402655 69 18131349678746724861
26918003 58 12107786311089173973
2916195 48 18129935797615725824
3545911 37 18411421708627028943
366044 4 18410574015860151298
42 15 10953458526741568014
42788 4 18411138047949833984
441001 317 18202003205121259513
449060 50 18408888421210259111
5104073 3 18188778228112691683
77779 3 18411702049933054407

> <PUBCHEM_SHAPE_MULTIPOLES>
249.93
12.11
1.3
0.6
9.71
0.12
0
-4.16
-0.13
-0.27
0.01
-0.01
0
0.03

> <PUBCHEM_SHAPE_SELFOVERLAP>
505.336

> <PUBCHEM_SHAPE_VOLUME>
147.1

> <PUBCHEM_COORDINATE_TYPE>
2
5
10

$$$$
