65427
  -OEChem-11232109183D

 22 22  0     1  0  0  0  0  0999 V2000
    2.4982    1.0292   -0.2808 O   0  0  0  0  0  0  0  0  0  0  0  0
   -0.1065    2.2651    0.1147 O   0  0  0  0  0  0  0  0  0  0  0  0
   -1.0535    0.0550    0.4636 C   0  0  2  0  0  0  0  0  0  0  0  0
   -0.3352   -1.2892    0.2917 C   0  0  0  0  0  0  0  0  0  0  0  0
   -2.2374    0.2226   -0.4728 C   0  0  0  0  0  0  0  0  0  0  0  0
    1.1040   -0.9364    0.0347 C   0  0  0  0  0  0  0  0  0  0  0  0
    0.0379    1.0531    0.1667 C   0  0  0  0  0  0  0  0  0  0  0  0
    1.3283    0.3812   -0.0448 C   0  0  0  0  0  0  0  0  0  0  0  0
   -3.3502   -0.7613   -0.1526 C   0  0  0  0  0  0  0  0  0  0  0  0
    2.1143   -2.0193   -0.1203 C   0  0  0  0  0  0  0  0  0  0  0  0
   -1.3569    0.1881    1.5094 H   0  0  0  0  0  0  0  0  0  0  0  0
   -0.7254   -1.8745   -0.5480 H   0  0  0  0  0  0  0  0  0  0  0  0
   -0.4307   -1.8919    1.2016 H   0  0  0  0  0  0  0  0  0  0  0  0
   -1.9265    0.0999   -1.5178 H   0  0  0  0  0  0  0  0  0  0  0  0
   -2.6325    1.2425   -0.3886 H   0  0  0  0  0  0  0  0  0  0  0  0
   -3.0368   -1.7982   -0.3053 H   0  0  0  0  0  0  0  0  0  0  0  0
   -3.6842   -0.6524    0.8843 H   0  0  0  0  0  0  0  0  0  0  0  0
   -4.2111   -0.5770   -0.8034 H   0  0  0  0  0  0  0  0  0  0  0  0
    3.1241   -1.6459   -0.3078 H   0  0  0  0  0  0  0  0  0  0  0  0
    1.8422   -2.6696   -0.9581 H   0  0  0  0  0  0  0  0  0  0  0  0
    2.1523   -2.6295    0.7880 H   0  0  0  0  0  0  0  0  0  0  0  0
    3.2064    0.3746   -0.3902 H   0  0  0  0  0  0  0  0  0  0  0  0
  1  8  1  0  0  0  0
  1 22  1  0  0  0  0
  2  7  2  0  0  0  0
  3  4  1  0  0  0  0
  3  5  1  0  0  0  0
  3  7  1  0  0  0  0
  3 11  1  0  0  0  0
  4  6  1  0  0  0  0
  4 12  1  0  0  0  0
  4 13  1  0  0  0  0
  5  9  1  0  0  0  0
  5 14  1  0  0  0  0
  5 15  1  0  0  0  0
  6  8  2  0  0  0  0
  6 10  1  0  0  0  0
  7  8  1  0  0  0  0
  9 16  1  0  0  0  0
  9 17  1  0  0  0  0
  9 18  1  0  0  0  0
 10 19  1  0  0  0  0
 10 20  1  0  0  0  0
 10 21  1  0  0  0  0
M  END
> <PUBCHEM_COMPOUND_CID>
65427

> <PUBCHEM_CONFORMER_RMSD>
0.4

> <PUBCHEM_CONFORMER_DIVERSEORDER>
4
3
2
5
6
1

> <PUBCHEM_MMFF94_PARTIAL_CHARGES>
9
1 -0.53
10 0.14
2 -0.57
22 0.45
3 0.06
4 0.14
6 -0.28
7 0.49
8 0.09

> <PUBCHEM_EFFECTIVE_ROTOR_COUNT>
1.4

> <PUBCHEM_PHARMACOPHORE_FEATURES>
4
1 1 donor
1 2 acceptor
1 9 hydrophobe
5 3 4 6 7 8 rings

> <PUBCHEM_HEAVY_ATOM_COUNT>
10

> <PUBCHEM_ATOM_DEF_STEREO_COUNT>
0

> <PUBCHEM_ATOM_UDEF_STEREO_COUNT>
1

> <PUBCHEM_BOND_DEF_STEREO_COUNT>
0

> <PUBCHEM_BOND_UDEF_STEREO_COUNT>
0

> <PUBCHEM_ISOTOPIC_ATOM_COUNT>
0

> <PUBCHEM_COMPONENT_COUNT>
1

> <PUBCHEM_CACTVS_TAUTO_COUNT>
25

> <PUBCHEM_CONFORMER_ID>
0000FF9300000004

> <PUBCHEM_MMFF94_ENERGY>
9.5081

> <PUBCHEM_FEATURE_SELFOVERLAP>
20.297

> <PUBCHEM_SHAPE_FINGERPRINT>
11206711 2 18046916982648967102
12423570 1 8545851150816764682
12897270 3 18410294709224369999
14128692 85 18269557135122956070
16945 1 18339924938739471641
193761 8 18194684757005636464
20645477 70 18411411800924084615
21040471 1 18265612267743383144
23402655 69 18339627998366243949
23552423 10 18262522463843960474
241688 4 18194121815457390856
2748010 2 18337950091249199893
29004967 10 18410574002573959113
5084963 1 18057319492213707082

> <PUBCHEM_SHAPE_MULTIPOLES>
194.06
3.71
1.96
0.67
1.99
0.29
-0.01
-1.22
0.56
-0.87
-0.02
0.08
-0.03
-0.03

> <PUBCHEM_SHAPE_SELFOVERLAP>
391.935

> <PUBCHEM_SHAPE_VOLUME>
114.6

> <PUBCHEM_COORDINATE_TYPE>
2
5
10

$$$$
