65425
  -OEChem-11232109123D

 21 20  0     0  0  0  0  0  0999 V2000
    3.2723   -0.1603    0.7567 S   0  0  0  0  0  0  0  0  0  0  0  0
   -2.5493   -0.3746    0.2982 O   0  0  0  0  0  0  0  0  0  0  0  0
   -1.0625    1.1720   -0.5507 O   0  0  0  0  0  0  0  0  0  0  0  0
    0.9424   -0.8938   -0.6054 C   0  0  0  0  0  0  0  0  0  0  0  0
   -0.5554   -1.2069   -0.6101 C   0  0  0  0  0  0  0  0  0  0  0  0
    1.4804   -0.4614    0.7582 C   0  0  0  0  0  0  0  0  0  0  0  0
   -1.3879    0.0187   -0.3048 C   0  0  0  0  0  0  0  0  0  0  0  0
    3.3033    1.2243   -0.4042 C   0  0  0  0  0  0  0  0  0  0  0  0
   -3.4435    0.6820    0.6621 C   0  0  0  0  0  0  0  0  0  0  0  0
    1.1305   -0.1183   -1.3560 H   0  0  0  0  0  0  0  0  0  0  0  0
    1.4763   -1.7933   -0.9375 H   0  0  0  0  0  0  0  0  0  0  0  0
   -0.7608   -1.9829    0.1362 H   0  0  0  0  0  0  0  0  0  0  0  0
   -0.8598   -1.5831   -1.5924 H   0  0  0  0  0  0  0  0  0  0  0  0
    0.9795    0.4426    1.1185 H   0  0  0  0  0  0  0  0  0  0  0  0
    1.2838   -1.2487    1.4940 H   0  0  0  0  0  0  0  0  0  0  0  0
    3.1499    0.8780   -1.4290 H   0  0  0  0  0  0  0  0  0  0  0  0
    4.2865    1.7009   -0.3568 H   0  0  0  0  0  0  0  0  0  0  0  0
    2.5493    1.9717   -0.1438 H   0  0  0  0  0  0  0  0  0  0  0  0
   -4.3242    0.2356    1.1313 H   0  0  0  0  0  0  0  0  0  0  0  0
   -3.7609    1.2327   -0.2285 H   0  0  0  0  0  0  0  0  0  0  0  0
   -2.9641    1.3526    1.3815 H   0  0  0  0  0  0  0  0  0  0  0  0
  1  6  1  0  0  0  0
  1  8  1  0  0  0  0
  2  7  1  0  0  0  0
  2  9  1  0  0  0  0
  3  7  2  0  0  0  0
  4  5  1  0  0  0  0
  4  6  1  0  0  0  0
  4 10  1  0  0  0  0
  4 11  1  0  0  0  0
  5  7  1  0  0  0  0
  5 12  1  0  0  0  0
  5 13  1  0  0  0  0
  6 14  1  0  0  0  0
  6 15  1  0  0  0  0
  8 16  1  0  0  0  0
  8 17  1  0  0  0  0
  8 18  1  0  0  0  0
  9 19  1  0  0  0  0
  9 20  1  0  0  0  0
  9 21  1  0  0  0  0
M  END
> <PUBCHEM_COMPOUND_CID>
65425

> <PUBCHEM_CONFORMER_RMSD>
0.6

> <PUBCHEM_CONFORMER_DIVERSEORDER>
34
53
16
50
61
3
66
55
62
43
65
58
33
21
64
51
60
24
59
54
39
63
10
12
9
27
26
44
52
28
57
49
17
31
56
19
42
25
48
32
8
6
38
36
2
35
13
45
4
40
41
18
23
15
7
11
5
37
14
30
29
1
20
22
47
46

> <PUBCHEM_MMFF94_PARTIAL_CHARGES>
8
1 -0.46
2 -0.43
3 -0.57
5 0.06
6 0.23
7 0.66
8 0.23
9 0.28

> <PUBCHEM_EFFECTIVE_ROTOR_COUNT>
5

> <PUBCHEM_PHARMACOPHORE_FEATURES>
3
1 3 acceptor
1 8 hydrophobe
4 1 4 5 6 hydrophobe

> <PUBCHEM_HEAVY_ATOM_COUNT>
9

> <PUBCHEM_ATOM_DEF_STEREO_COUNT>
0

> <PUBCHEM_ATOM_UDEF_STEREO_COUNT>
0

> <PUBCHEM_BOND_DEF_STEREO_COUNT>
0

> <PUBCHEM_BOND_UDEF_STEREO_COUNT>
0

> <PUBCHEM_ISOTOPIC_ATOM_COUNT>
0

> <PUBCHEM_COMPONENT_COUNT>
1

> <PUBCHEM_CACTVS_TAUTO_COUNT>
1

> <PUBCHEM_CONFORMER_ID>
0000FF9100000022

> <PUBCHEM_MMFF94_ENERGY>
10.2422

> <PUBCHEM_FEATURE_SELFOVERLAP>
15.226

> <PUBCHEM_SHAPE_FINGERPRINT>
10149128 111 18130793356012373920
10857977 72 18261120655712698555
11031198 65 16988566788139800414
11062470 55 8142085372929406570
12932764 1 17458334235167015782
13549 16 12607134984273682835
14390081 3 17203603778963166907
15775835 57 18338237171517233168
20211469 26 15647044958788006050
20651381 32 12319740267208513424
20653085 51 15123789621313050355
20711983 171 18272651290003474356
21293036 1 11815889063658822691
23235685 24 17918268744863047546
23552449 11 13262691356110611166

> <PUBCHEM_SHAPE_MULTIPOLES>
177.33
5.94
1.25
0.95
0.16
0.05
0.07
2.16
1.36
0.16
-0.25
0.24
0
-0.42

> <PUBCHEM_SHAPE_SELFOVERLAP>
308.301

> <PUBCHEM_SHAPE_VOLUME>
119

> <PUBCHEM_COORDINATE_TYPE>
2
5
10

$$$$
