6548
  -OEChem-11232109043D

 33 32  0     1  0  0  0  0  0999 V2000
    2.1476   -1.1867    1.2940 O   0  0  0  0  0  0  0  0  0  0  0  0
    2.0810   -0.3930    0.1004 C   0  0  1  0  0  0  0  0  0  0  0  0
    0.7198   -0.6822   -0.5690 C   0  0  0  0  0  0  0  0  0  0  0  0
   -0.4997   -0.2448    0.2556 C   0  0  0  0  0  0  0  0  0  0  0  0
   -1.8054   -0.5557   -0.4856 C   0  0  0  0  0  0  0  0  0  0  0  0
   -3.0662   -0.1156    0.2813 C   0  0  0  0  0  0  0  0  0  0  0  0
    2.2839    1.0797    0.5150 C   0  0  0  0  0  0  0  0  0  0  0  0
    3.2110   -0.8723   -0.8206 C   0  0  0  0  0  0  0  0  0  0  0  0
   -3.0789    1.3854    0.5741 C   0  0  0  0  0  0  0  0  0  0  0  0
   -4.3167   -0.4961   -0.5154 C   0  0  0  0  0  0  0  0  0  0  0  0
    2.3237    2.0813   -0.6298 C   0  0  0  0  0  0  0  0  0  0  0  0
    0.6343   -1.7629   -0.7455 H   0  0  0  0  0  0  0  0  0  0  0  0
    0.6805   -0.1973   -1.5523 H   0  0  0  0  0  0  0  0  0  0  0  0
   -0.4389    0.8311    0.4375 H   0  0  0  0  0  0  0  0  0  0  0  0
   -0.5080   -0.7491    1.2279 H   0  0  0  0  0  0  0  0  0  0  0  0
   -1.8591   -1.6355   -0.6743 H   0  0  0  0  0  0  0  0  0  0  0  0
   -1.7874   -0.0656   -1.4678 H   0  0  0  0  0  0  0  0  0  0  0  0
   -3.0994   -0.6514    1.2384 H   0  0  0  0  0  0  0  0  0  0  0  0
    1.5202    1.3843    1.2402 H   0  0  0  0  0  0  0  0  0  0  0  0
    3.2278    1.1583    1.0722 H   0  0  0  0  0  0  0  0  0  0  0  0
    3.1467   -1.9552   -0.9799 H   0  0  0  0  0  0  0  0  0  0  0  0
    3.1845   -0.3831   -1.7989 H   0  0  0  0  0  0  0  0  0  0  0  0
    4.1897   -0.6882   -0.3632 H   0  0  0  0  0  0  0  0  0  0  0  0
   -2.2967    1.6619    1.2873 H   0  0  0  0  0  0  0  0  0  0  0  0
   -2.9341    1.9704   -0.3405 H   0  0  0  0  0  0  0  0  0  0  0  0
   -4.0344    1.6858    1.0182 H   0  0  0  0  0  0  0  0  0  0  0  0
   -4.3460    0.0206   -1.4809 H   0  0  0  0  0  0  0  0  0  0  0  0
   -4.3431   -1.5742   -0.7064 H   0  0  0  0  0  0  0  0  0  0  0  0
   -5.2253   -0.2342    0.0370 H   0  0  0  0  0  0  0  0  0  0  0  0
    3.1608    1.8891   -1.3067 H   0  0  0  0  0  0  0  0  0  0  0  0
    2.4495    3.0941   -0.2327 H   0  0  0  0  0  0  0  0  0  0  0  0
    1.3955    2.0654   -1.2082 H   0  0  0  0  0  0  0  0  0  0  0  0
    1.5523   -0.7975    1.9562 H   0  0  0  0  0  0  0  0  0  0  0  0
  1  2  1  0  0  0  0
  1 33  1  0  0  0  0
  2  3  1  0  0  0  0
  2  7  1  0  0  0  0
  2  8  1  0  0  0  0
  3  4  1  0  0  0  0
  3 12  1  0  0  0  0
  3 13  1  0  0  0  0
  4  5  1  0  0  0  0
  4 14  1  0  0  0  0
  4 15  1  0  0  0  0
  5  6  1  0  0  0  0
  5 16  1  0  0  0  0
  5 17  1  0  0  0  0
  6  9  1  0  0  0  0
  6 10  1  0  0  0  0
  6 18  1  0  0  0  0
  7 11  1  0  0  0  0
  7 19  1  0  0  0  0
  7 20  1  0  0  0  0
  8 21  1  0  0  0  0
  8 22  1  0  0  0  0
  8 23  1  0  0  0  0
  9 24  1  0  0  0  0
  9 25  1  0  0  0  0
  9 26  1  0  0  0  0
 10 27  1  0  0  0  0
 10 28  1  0  0  0  0
 10 29  1  0  0  0  0
 11 30  1  0  0  0  0
 11 31  1  0  0  0  0
 11 32  1  0  0  0  0
M  END
> <PUBCHEM_COMPOUND_CID>
6548

> <PUBCHEM_CONFORMER_RMSD>
0.6

> <PUBCHEM_CONFORMER_DIVERSEORDER>
1
22
19
21
4
16
23
12
5
25
8
20
18
2
13
24
7
15
17
3
11
6
10
9
14

> <PUBCHEM_MMFF94_PARTIAL_CHARGES>
3
1 -0.68
2 0.28
33 0.4

> <PUBCHEM_EFFECTIVE_ROTOR_COUNT>
5

> <PUBCHEM_PHARMACOPHORE_FEATURES>
5
1 1 acceptor
1 1 donor
1 11 hydrophobe
3 6 9 10 hydrophobe
4 3 4 5 6 hydrophobe

> <PUBCHEM_HEAVY_ATOM_COUNT>
11

> <PUBCHEM_ATOM_DEF_STEREO_COUNT>
0

> <PUBCHEM_ATOM_UDEF_STEREO_COUNT>
1

> <PUBCHEM_BOND_DEF_STEREO_COUNT>
0

> <PUBCHEM_BOND_UDEF_STEREO_COUNT>
0

> <PUBCHEM_ISOTOPIC_ATOM_COUNT>
0

> <PUBCHEM_COMPONENT_COUNT>
1

> <PUBCHEM_CACTVS_TAUTO_COUNT>
1

> <PUBCHEM_CONFORMER_ID>
0000199400000001

> <PUBCHEM_MMFF94_ENERGY>
15.5248

> <PUBCHEM_FEATURE_SELFOVERLAP>
25.399

> <PUBCHEM_SHAPE_FINGERPRINT>
11062470 55 13190342366006394191
12162725 195 18341895186420074177
12932764 1 17894908520909223271
14144814 61 18408884006026128787
14325111 11 18273215296402831655
15775835 57 18129665329970300844
17041 50 18340774719530907700
170605 34 18337391668339131440
18186145 218 18334857203916491663
190213 19 18202560679233672391
20279233 1 16660359298941926539
20559304 39 18131630092903501760
20671657 1 18336270140835642396
20711983 171 17988932154199935957
21524375 3 17975973486380677988
22485316 2 8142085343086032111
2255824 54 18334576854242525950
230 275 18335414707724969640
3248919 1 18272927228635692351
93112 12 18342742926843562199

> <PUBCHEM_SHAPE_MULTIPOLES>
220.51
7.15
1.58
0.96
5.48
0.85
-0.1
0.14
0.62
-0.94
0.11
-0.39
-0.09
-0.54

> <PUBCHEM_SHAPE_SELFOVERLAP>
399.333

> <PUBCHEM_SHAPE_VOLUME>
143.5

> <PUBCHEM_COORDINATE_TYPE>
2
5
10

$$$$
