656467
  -OEChem-11232109183D

 24 23  0     1  0  0  0  0  0999 V2000
    2.5439    0.2316   -0.8971 O   0  0  0  0  0  0  0  0  0  0  0  0
   -1.4330   -0.0316    0.3880 O   0  0  0  0  0  0  0  0  0  0  0  0
   -0.1792   -0.6171   -1.4573 O   0  0  0  0  0  0  0  0  0  0  0  0
    0.8684   -0.4386    0.7323 C   0  0  2  0  0  0  0  0  0  0  0  0
    1.9763    0.5643    0.3674 C   0  0  2  0  0  0  0  0  0  0  0  0
    1.3959   -1.8727    0.8030 C   0  0  0  0  0  0  0  0  0  0  0  0
   -0.2846   -0.3869   -0.2593 C   0  0  0  0  0  0  0  0  0  0  0  0
    1.4883    2.0084    0.3331 C   0  0  0  0  0  0  0  0  0  0  0  0
   -2.5984    0.0718   -0.4358 C   0  0  0  0  0  0  0  0  0  0  0  0
   -3.7776    0.4707    0.4257 C   0  0  0  0  0  0  0  0  0  0  0  0
    0.4847   -0.1752    1.7269 H   0  0  0  0  0  0  0  0  0  0  0  0
    2.7822    0.4881    1.1064 H   0  0  0  0  0  0  0  0  0  0  0  0
    1.7700   -2.2170   -0.1672 H   0  0  0  0  0  0  0  0  0  0  0  0
    0.5991   -2.5607    1.1068 H   0  0  0  0  0  0  0  0  0  0  0  0
    2.2088   -1.9531    1.5319 H   0  0  0  0  0  0  0  0  0  0  0  0
    1.0459    2.3007    1.2902 H   0  0  0  0  0  0  0  0  0  0  0  0
    2.3242    2.6825    0.1162 H   0  0  0  0  0  0  0  0  0  0  0  0
    0.7508    2.1678   -0.4606 H   0  0  0  0  0  0  0  0  0  0  0  0
    1.8676    0.3748   -1.5807 H   0  0  0  0  0  0  0  0  0  0  0  0
   -2.4322    0.8296   -1.2097 H   0  0  0  0  0  0  0  0  0  0  0  0
   -2.7972   -0.8955   -0.9105 H   0  0  0  0  0  0  0  0  0  0  0  0
   -4.6878    0.5592   -0.1739 H   0  0  0  0  0  0  0  0  0  0  0  0
   -3.9451   -0.2686    1.2159 H   0  0  0  0  0  0  0  0  0  0  0  0
   -3.5860    1.4281    0.9215 H   0  0  0  0  0  0  0  0  0  0  0  0
  1  5  1  0  0  0  0
  1 19  1  0  0  0  0
  2  7  1  0  0  0  0
  2  9  1  0  0  0  0
  3  7  2  0  0  0  0
  4  5  1  0  0  0  0
  4  6  1  0  0  0  0
  4  7  1  0  0  0  0
  4 11  1  0  0  0  0
  5  8  1  0  0  0  0
  5 12  1  0  0  0  0
  6 13  1  0  0  0  0
  6 14  1  0  0  0  0
  6 15  1  0  0  0  0
  8 16  1  0  0  0  0
  8 17  1  0  0  0  0
  8 18  1  0  0  0  0
  9 10  1  0  0  0  0
  9 20  1  0  0  0  0
  9 21  1  0  0  0  0
 10 22  1  0  0  0  0
 10 23  1  0  0  0  0
 10 24  1  0  0  0  0
M  END
> <PUBCHEM_COMPOUND_CID>
656467

> <PUBCHEM_CONFORMER_RMSD>
0.6

> <PUBCHEM_CONFORMER_DIVERSEORDER>
1
121
117
118
99
94
90
64
102
33
131
125
110
101
83
105
15
47
27
78
139
21
74
39
116
43
19
147
86
61
44
120
5
30
76
22
70
87
130
89
34
135
128
80
32
138
82
29
144
56
60
54
8
88
25
17
53
140
136
68
106
98
77
95
24
2
20
124
16
40
72
73
23
129
35
42
71
112
91
143
132
142
104
111
81
55
100
45
93
11
52
134
119
18
12
69
113
3
59
141
146
37
145
123
28
148
31
7
49
79
84
62
114
57
65
36
48
4
108
51
75
107
38
58
41
127
14
115
97
85
6
126
26
13
67
133
137
92
103
122
66
96
46
50
63
109
10
9

> <PUBCHEM_MMFF94_PARTIAL_CHARGES>
8
1 -0.68
19 0.4
2 -0.43
3 -0.57
4 0.06
5 0.28
7 0.66
9 0.28

> <PUBCHEM_EFFECTIVE_ROTOR_COUNT>
4

> <PUBCHEM_PHARMACOPHORE_FEATURES>
4
1 1 acceptor
1 1 donor
1 3 acceptor
1 6 hydrophobe

> <PUBCHEM_HEAVY_ATOM_COUNT>
10

> <PUBCHEM_ATOM_DEF_STEREO_COUNT>
0

> <PUBCHEM_ATOM_UDEF_STEREO_COUNT>
2

> <PUBCHEM_BOND_DEF_STEREO_COUNT>
0

> <PUBCHEM_BOND_UDEF_STEREO_COUNT>
0

> <PUBCHEM_ISOTOPIC_ATOM_COUNT>
0

> <PUBCHEM_COMPONENT_COUNT>
1

> <PUBCHEM_CACTVS_TAUTO_COUNT>
1

> <PUBCHEM_CONFORMER_ID>
000A045300000001

> <PUBCHEM_MMFF94_ENERGY>
10.1081

> <PUBCHEM_FEATURE_SELFOVERLAP>
20.299

> <PUBCHEM_SHAPE_FINGERPRINT>
10857977 72 15864065481847257013
12932764 1 18335697235253322599
14390081 3 18410852200643850481
15775835 57 18270680982003971049
170605 34 18271805786593673145
20653085 51 17986119727746327560
20711978 78 18115847651443142030
21040471 1 18042964483429123882
23235685 24 17603865641258183828
3248919 1 17632289048118857407
5084963 1 16702307836352346207

> <PUBCHEM_SHAPE_MULTIPOLES>
188.19
4.53
1.54
1.03
4.88
0.12
0.24
1.06
-0.37
-1.25
-0.39
-0.14
-0.15
-0.22

> <PUBCHEM_SHAPE_SELFOVERLAP>
348.869

> <PUBCHEM_SHAPE_VOLUME>
119.3

> <PUBCHEM_COORDINATE_TYPE>
2
5
10

$$$$
