66338
  -OEChem-11232109473D

 28 27  0     0  0  0  0  0  0999 V2000
   -2.2644    0.5676    0.1483 O   0  0  0  0  0  0  0  0  0  0  0  0
   -2.9488   -1.5015   -0.6300 O   0  0  0  0  0  0  0  0  0  0  0  0
    2.7760    0.2895    0.2723 C   0  0  0  0  0  0  0  0  0  0  0  0
    2.7737   -1.1684   -0.2002 C   0  0  0  0  0  0  0  0  0  0  0  0
    3.8057    1.1187   -0.4960 C   0  0  0  0  0  0  0  0  0  0  0  0
    1.7354   -2.0267    0.5246 C   0  0  0  0  0  0  0  0  0  0  0  0
    3.7931    2.5730   -0.0524 C   0  0  0  0  0  0  0  0  0  0  0  0
    0.3618   -1.5697    0.2733 C   0  0  0  0  0  0  0  0  0  0  0  0
   -0.7607   -1.1949    0.0690 C   0  0  0  0  0  0  0  0  0  0  0  0
   -3.5756    1.0986   -0.0696 C   0  0  0  0  0  0  0  0  0  0  0  0
   -3.5916    2.5562    0.3387 C   0  0  0  0  0  0  0  0  0  0  0  0
   -2.1045   -0.7425   -0.1779 C   0  0  0  0  0  0  0  0  0  0  0  0
    2.9978    0.3268    1.3458 H   0  0  0  0  0  0  0  0  0  0  0  0
    1.7857    0.7376    0.1314 H   0  0  0  0  0  0  0  0  0  0  0  0
    2.5858   -1.2010   -1.2811 H   0  0  0  0  0  0  0  0  0  0  0  0
    3.7670   -1.6035   -0.0358 H   0  0  0  0  0  0  0  0  0  0  0  0
    4.8082    0.7031   -0.3415 H   0  0  0  0  0  0  0  0  0  0  0  0
    3.5961    1.0706   -1.5709 H   0  0  0  0  0  0  0  0  0  0  0  0
    1.9368   -2.0186    1.6021 H   0  0  0  0  0  0  0  0  0  0  0  0
    1.8378   -3.0658    0.1904 H   0  0  0  0  0  0  0  0  0  0  0  0
    2.8127    3.0280   -0.2264 H   0  0  0  0  0  0  0  0  0  0  0  0
    4.5379    3.1466   -0.6128 H   0  0  0  0  0  0  0  0  0  0  0  0
    4.0283    2.6600    1.0132 H   0  0  0  0  0  0  0  0  0  0  0  0
   -3.8344    1.0083   -1.1306 H   0  0  0  0  0  0  0  0  0  0  0  0
   -4.3010    0.5379    0.5304 H   0  0  0  0  0  0  0  0  0  0  0  0
   -4.5814    2.9947    0.1847 H   0  0  0  0  0  0  0  0  0  0  0  0
   -3.3171    2.6640    1.3932 H   0  0  0  0  0  0  0  0  0  0  0  0
   -2.8580    3.1267   -0.2405 H   0  0  0  0  0  0  0  0  0  0  0  0
  1 10  1  0  0  0  0
  1 12  1  0  0  0  0
  2 12  2  0  0  0  0
  3  4  1  0  0  0  0
  3  5  1  0  0  0  0
  3 13  1  0  0  0  0
  3 14  1  0  0  0  0
  4  6  1  0  0  0  0
  4 15  1  0  0  0  0
  4 16  1  0  0  0  0
  5  7  1  0  0  0  0
  5 17  1  0  0  0  0
  5 18  1  0  0  0  0
  6  8  1  0  0  0  0
  6 19  1  0  0  0  0
  6 20  1  0  0  0  0
  7 21  1  0  0  0  0
  7 22  1  0  0  0  0
  7 23  1  0  0  0  0
  8  9  3  0  0  0  0
  9 12  1  0  0  0  0
 10 11  1  0  0  0  0
 10 24  1  0  0  0  0
 10 25  1  0  0  0  0
 11 26  1  0  0  0  0
 11 27  1  0  0  0  0
 11 28  1  0  0  0  0
M  END
> <PUBCHEM_COMPOUND_CID>
66338

> <PUBCHEM_CONFORMER_RMSD>
0.6

> <PUBCHEM_CONFORMER_DIVERSEORDER>
1
33
42
39
60
52
61
34
54
38
29
18
57
17
23
58
22
4
49
12
50
43
5
8
40
32
56
45
59
51
28
2
26
35
48
3
9
24
30
37
21
41
31
47
46
25
11
53
20
19
16
10
55
15
13
6
44
36
7
27
14

> <PUBCHEM_MMFF94_PARTIAL_CHARGES>
7
1 -0.43
10 0.28
12 0.83
2 -0.57
6 0.2
8 -0.2
9 -0.1

> <PUBCHEM_EFFECTIVE_ROTOR_COUNT>
5

> <PUBCHEM_PHARMACOPHORE_FEATURES>
3
1 2 acceptor
1 7 hydrophobe
5 3 4 5 6 8 hydrophobe

> <PUBCHEM_HEAVY_ATOM_COUNT>
12

> <PUBCHEM_ATOM_DEF_STEREO_COUNT>
0

> <PUBCHEM_ATOM_UDEF_STEREO_COUNT>
0

> <PUBCHEM_BOND_DEF_STEREO_COUNT>
0

> <PUBCHEM_BOND_UDEF_STEREO_COUNT>
0

> <PUBCHEM_ISOTOPIC_ATOM_COUNT>
0

> <PUBCHEM_COMPONENT_COUNT>
1

> <PUBCHEM_CACTVS_TAUTO_COUNT>
1

> <PUBCHEM_CONFORMER_ID>
0001032200000001

> <PUBCHEM_MMFF94_ENERGY>
0.0922

> <PUBCHEM_FEATURE_SELFOVERLAP>
15.223

> <PUBCHEM_SHAPE_FINGERPRINT>
122479 349 18264493897304639683
13618510 140 18409166636270109044
14123255 52 18410013255981283336
14123260 362 17988934327331913073
14251710 61 9511458935366245492
14415576 193 18341331111021957446
15775835 57 18410296895441922748
17041 49 18118110373696557282
17834072 32 18124033430140440305
19107657 9 18041288759083888380
20304884 271 18409732893432582050
20621476 13 18191013513245243877
20671657 1 18264772060503096086
21524375 3 18189608509847808138
22485316 2 9871479711788571306
22959321 54 18336261352910554890
23590187 138 18342465794421861161
8199 26 18410576197228751456

> <PUBCHEM_SHAPE_MULTIPOLES>
235.22
8.28
3
0.7
0.6
1.47
0
6.49
0.54
-0.51
-0.21
-0.04
-0.05
-0.75

> <PUBCHEM_SHAPE_SELFOVERLAP>
434.385

> <PUBCHEM_SHAPE_VOLUME>
147.9

> <PUBCHEM_COORDINATE_TYPE>
2
5
10

$$$$
