66337
  -OEChem-11232109223D

 28 28  0     0  0  0  0  0  0999 V2000
    0.8165   -0.7004   -0.6342 O   0  0  0  0  0  0  0  0  0  0  0  0
    3.1113   -0.3512   -0.0470 C   0  0  0  0  0  0  0  0  0  0  0  0
    4.1950    0.6805    0.2530 C   0  0  0  0  0  0  0  0  0  0  0  0
    1.7820    0.3108   -0.3809 C   0  0  0  0  0  0  0  0  0  0  0  0
    5.5094    0.0149    0.6281 C   0  0  0  0  0  0  0  0  0  0  0  0
   -0.4890   -0.3944   -0.3490 C   0  0  0  0  0  0  0  0  0  0  0  0
   -3.1365    0.2251    0.2302 C   0  0  0  0  0  0  0  0  0  0  0  0
   -1.3631   -1.4041    0.0364 C   0  0  0  0  0  0  0  0  0  0  0  0
   -0.9246    0.9220   -0.4477 C   0  0  0  0  0  0  0  0  0  0  0  0
   -2.6916   -1.0933    0.3269 C   0  0  0  0  0  0  0  0  0  0  0  0
   -2.2530    1.2328   -0.1570 C   0  0  0  0  0  0  0  0  0  0  0  0
   -4.5564    0.5574    0.5411 C   0  0  0  0  0  0  0  0  0  0  0  0
    3.4187   -0.9940   -0.8813 H   0  0  0  0  0  0  0  0  0  0  0  0
    2.9764   -1.0202    0.8124 H   0  0  0  0  0  0  0  0  0  0  0  0
    3.8755    1.3291    1.0770 H   0  0  0  0  0  0  0  0  0  0  0  0
    4.3515    1.3213   -0.6224 H   0  0  0  0  0  0  0  0  0  0  0  0
    1.4971    0.9382    0.4738 H   0  0  0  0  0  0  0  0  0  0  0  0
    1.8888    0.9378   -1.2738 H   0  0  0  0  0  0  0  0  0  0  0  0
    5.3937   -0.6064    1.5219 H   0  0  0  0  0  0  0  0  0  0  0  0
    5.8745   -0.6189   -0.1864 H   0  0  0  0  0  0  0  0  0  0  0  0
    6.2716    0.7721    0.8371 H   0  0  0  0  0  0  0  0  0  0  0  0
   -1.0202   -2.4319    0.1136 H   0  0  0  0  0  0  0  0  0  0  0  0
   -0.2770    1.7305   -0.7725 H   0  0  0  0  0  0  0  0  0  0  0  0
   -3.3696   -1.8869    0.6295 H   0  0  0  0  0  0  0  0  0  0  0  0
   -2.5893    2.2629   -0.2400 H   0  0  0  0  0  0  0  0  0  0  0  0
   -4.9010    1.4120   -0.0510 H   0  0  0  0  0  0  0  0  0  0  0  0
   -5.2195   -0.2823    0.3068 H   0  0  0  0  0  0  0  0  0  0  0  0
   -4.6613    0.8013    1.6030 H   0  0  0  0  0  0  0  0  0  0  0  0
  1  4  1  0  0  0  0
  1  6  1  0  0  0  0
  2  3  1  0  0  0  0
  2  4  1  0  0  0  0
  2 13  1  0  0  0  0
  2 14  1  0  0  0  0
  3  5  1  0  0  0  0
  3 15  1  0  0  0  0
  3 16  1  0  0  0  0
  4 17  1  0  0  0  0
  4 18  1  0  0  0  0
  5 19  1  0  0  0  0
  5 20  1  0  0  0  0
  5 21  1  0  0  0  0
  6  8  2  0  0  0  0
  6  9  1  0  0  0  0
  7 10  2  0  0  0  0
  7 11  1  0  0  0  0
  7 12  1  0  0  0  0
  8 10  1  0  0  0  0
  8 22  1  0  0  0  0
  9 11  2  0  0  0  0
  9 23  1  0  0  0  0
 10 24  1  0  0  0  0
 11 25  1  0  0  0  0
 12 26  1  0  0  0  0
 12 27  1  0  0  0  0
 12 28  1  0  0  0  0
M  END
> <PUBCHEM_COMPOUND_CID>
66337

> <PUBCHEM_CONFORMER_RMSD>
0.6

> <PUBCHEM_CONFORMER_DIVERSEORDER>
1
12
15
18
14
17
7
9
11
2
20
19
4
21
13
5
16
6
8
3
10

> <PUBCHEM_MMFF94_PARTIAL_CHARGES>
13
1 -0.36
10 -0.15
11 -0.15
12 0.14
22 0.15
23 0.15
24 0.15
25 0.15
4 0.28
6 0.08
7 -0.14
8 -0.15
9 -0.15

> <PUBCHEM_EFFECTIVE_ROTOR_COUNT>
4

> <PUBCHEM_PHARMACOPHORE_FEATURES>
3
1 1 acceptor
1 5 hydrophobe
6 6 7 8 9 10 11 rings

> <PUBCHEM_HEAVY_ATOM_COUNT>
12

> <PUBCHEM_ATOM_DEF_STEREO_COUNT>
0

> <PUBCHEM_ATOM_UDEF_STEREO_COUNT>
0

> <PUBCHEM_BOND_DEF_STEREO_COUNT>
0

> <PUBCHEM_BOND_UDEF_STEREO_COUNT>
0

> <PUBCHEM_ISOTOPIC_ATOM_COUNT>
0

> <PUBCHEM_COMPONENT_COUNT>
1

> <PUBCHEM_CACTVS_TAUTO_COUNT>
1

> <PUBCHEM_CONFORMER_ID>
0001032100000001

> <PUBCHEM_MMFF94_ENERGY>
27.7349

> <PUBCHEM_FEATURE_SELFOVERLAP>
15.223

> <PUBCHEM_SHAPE_FINGERPRINT>
11132069 177 18410863156957502269
11401426 45 18409446982197655925
114248 4 9583517620842480522
12119455 92 17632294566444964287
12251169 10 18333170574401417076
12670543 26 9583248189149234201
13214271 11 18201719574270997551
13288520 33 11169911680157297369
13897977 58 18335425707331478036
15048467 5 16558756676926203377
15219456 202 18201727206333203438
17846911 113 18342178851724649681
187816 3 11383830463624135381
19050596 39 18259986011294587300
20279233 1 18059863865373565342
20300324 65 9439405735137701738
20645464 45 18202006533731112487
20645477 56 18343303669257418876
20645477 70 16630254597938816974
20828058 44 18334011713998085162
20871999 31 10447936044375462195
22485316 2 12396299274951833496
22926399 37 15841833356327509658
23402539 116 18411411822150351653
23403322 49 11386354938079497264
23559900 14 18340499885074887830
42 15 18186237321218196450
449060 50 18411418410661890468

> <PUBCHEM_SHAPE_MULTIPOLES>
241.09
9.76
1.21
0.75
10.57
0.12
-0.02
-1.46
-2.98
-0.77
0.02
0.06
-0.01
0.07

> <PUBCHEM_SHAPE_SELFOVERLAP>
480.38

> <PUBCHEM_SHAPE_VOLUME>
144.2

> <PUBCHEM_COORDINATE_TYPE>
2
5
10

$$$$
