66595
  -OEChem-11232109013D

 27 28  0     0  0  0  0  0  0999 V2000
   -1.1612   -1.5823   -0.1115 O   0  0  0  0  0  0  0  0  0  0  0  0
    3.2415    0.2357   -0.3823 O   0  0  0  0  0  0  0  0  0  0  0  0
   -3.2651   -2.4692    0.0171 O   0  0  0  0  0  0  0  0  0  0  0  0
   -0.8776    0.8415   -0.0007 C   0  0  0  0  0  0  0  0  0  0  0  0
   -0.3364   -0.4396   -0.1180 C   0  0  0  0  0  0  0  0  0  0  0  0
   -2.3343    0.9808    0.1303 C   0  0  0  0  0  0  0  0  0  0  0  0
    0.0099    1.9259   -0.0151 C   0  0  0  0  0  0  0  0  0  0  0  0
    1.9005    0.4291   -0.2583 C   0  0  0  0  0  0  0  0  0  0  0  0
    1.0361   -0.6605   -0.2461 C   0  0  0  0  0  0  0  0  0  0  0  0
    1.3884    1.7202   -0.1429 C   0  0  0  0  0  0  0  0  0  0  0  0
   -3.0942   -0.1235    0.1331 C   0  0  0  0  0  0  0  0  0  0  0  0
   -2.9471    2.3447    0.2579 C   0  0  0  0  0  0  0  0  0  0  0  0
   -2.5383   -1.4817    0.0106 C   0  0  0  0  0  0  0  0  0  0  0  0
    3.7743   -0.9793    0.1432 C   0  0  0  0  0  0  0  0  0  0  0  0
    5.2034   -0.7417    0.5827 C   0  0  0  0  0  0  0  0  0  0  0  0
   -0.3464    2.9490    0.0723 H   0  0  0  0  0  0  0  0  0  0  0  0
    1.3876   -1.6815   -0.3595 H   0  0  0  0  0  0  0  0  0  0  0  0
    2.0578    2.5766   -0.1514 H   0  0  0  0  0  0  0  0  0  0  0  0
   -4.1740   -0.0578    0.2279 H   0  0  0  0  0  0  0  0  0  0  0  0
   -4.0382    2.2958    0.3473 H   0  0  0  0  0  0  0  0  0  0  0  0
   -2.7228    2.9559   -0.6228 H   0  0  0  0  0  0  0  0  0  0  0  0
   -2.5730    2.8573    1.1506 H   0  0  0  0  0  0  0  0  0  0  0  0
    3.2136   -1.3249    1.0208 H   0  0  0  0  0  0  0  0  0  0  0  0
    3.7490   -1.7496   -0.6353 H   0  0  0  0  0  0  0  0  0  0  0  0
    5.6478   -1.6577    0.9822 H   0  0  0  0  0  0  0  0  0  0  0  0
    5.8120   -0.3917   -0.2577 H   0  0  0  0  0  0  0  0  0  0  0  0
    5.2462    0.0366    1.3518 H   0  0  0  0  0  0  0  0  0  0  0  0
  1  5  1  0  0  0  0
  1 13  1  0  0  0  0
  2  8  1  0  0  0  0
  2 14  1  0  0  0  0
  3 13  2  0  0  0  0
  4  5  2  0  0  0  0
  4  6  1  0  0  0  0
  4  7  1  0  0  0  0
  5  9  1  0  0  0  0
  6 11  2  0  0  0  0
  6 12  1  0  0  0  0
  7 10  2  0  0  0  0
  7 16  1  0  0  0  0
  8  9  2  0  0  0  0
  8 10  1  0  0  0  0
  9 17  1  0  0  0  0
 10 18  1  0  0  0  0
 11 13  1  0  0  0  0
 11 19  1  0  0  0  0
 12 20  1  0  0  0  0
 12 21  1  0  0  0  0
 12 22  1  0  0  0  0
 14 15  1  0  0  0  0
 14 23  1  0  0  0  0
 14 24  1  0  0  0  0
 15 25  1  0  0  0  0
 15 26  1  0  0  0  0
 15 27  1  0  0  0  0
M  END
> <PUBCHEM_COMPOUND_CID>
66595

> <PUBCHEM_CONFORMER_RMSD>
0.6

> <PUBCHEM_CONFORMER_DIVERSEORDER>
1
4
2
3

> <PUBCHEM_MMFF94_PARTIAL_CHARGES>
18
1 -0.23
10 -0.15
11 -0.14
12 0.14
13 0.71
14 0.28
16 0.15
17 0.15
18 0.15
19 0.15
2 -0.36
3 -0.57
4 0.03
5 0.08
6 -0.17
7 -0.15
8 0.08
9 -0.15

> <PUBCHEM_EFFECTIVE_ROTOR_COUNT>
2

> <PUBCHEM_PHARMACOPHORE_FEATURES>
4
1 2 acceptor
1 3 acceptor
6 1 4 5 6 11 13 rings
6 4 5 7 8 9 10 rings

> <PUBCHEM_HEAVY_ATOM_COUNT>
15

> <PUBCHEM_ATOM_DEF_STEREO_COUNT>
0

> <PUBCHEM_ATOM_UDEF_STEREO_COUNT>
0

> <PUBCHEM_BOND_DEF_STEREO_COUNT>
0

> <PUBCHEM_BOND_UDEF_STEREO_COUNT>
0

> <PUBCHEM_ISOTOPIC_ATOM_COUNT>
0

> <PUBCHEM_COMPONENT_COUNT>
1

> <PUBCHEM_CACTVS_TAUTO_COUNT>
1

> <PUBCHEM_CONFORMER_ID>
0001042300000001

> <PUBCHEM_MMFF94_ENERGY>
50.2867

> <PUBCHEM_FEATURE_SELFOVERLAP>
20.324

> <PUBCHEM_SHAPE_FINGERPRINT>
10062212 137 18260545593682568354
10967382 1 18122910824098428245
11132069 177 18340207380226300616
11769659 78 18337672026371001222
12032990 46 18411422834198734334
12251169 10 18410578353223076433
12500047 106 18267579122146945545
13140716 1 18413393158840855193
13214271 11 18272927194286341308
13380535 76 18270400465094682725
14965852 173 18410857680768834569
15042514 8 18337116678873638825
15196674 1 18410575131955302404
15375462 189 18040997311056057330
15442244 35 18409451396970647700
16945 1 18340780260075733485
17804303 29 18341898489197268192
1813 80 17168717310765896662
18186145 218 12468362349383764886
19422 9 18260553346293553900
200 152 18059564828502363335
20281475 54 18334576841563086164
20871998 184 18202847659978674807
21267235 1 18409176506126151730
21501502 16 18337681926249870341
21501925 9 18339636858308723090
232386 152 18410016545941744812
2334 1 18267870664584981325
23366157 5 17969784271119682868
23402539 116 18343292648877954189
23463225 33 18408888434216408844
23559900 14 18199754631645489798
2748010 2 18341048639639246877
34934 24 18263075514129704282
5104073 3 18340491165584181096
54173680 148 18410858767506258769
5493415 88 18341047518467945393
573450 72 18334286540370742098
7364860 26 18125442170580857720
76465 3 18269549614661913023
8809292 202 18262241122301516443
9709674 26 18200315407823310814

> <PUBCHEM_SHAPE_MULTIPOLES>
291.09
7.33
2.32
0.65
8.27
0.03
-0.02
2.27
-1.2
-2.31
-0.05
0.14
-0.03
-0.33

> <PUBCHEM_SHAPE_SELFOVERLAP>
620.614

> <PUBCHEM_SHAPE_VOLUME>
163

> <PUBCHEM_COORDINATE_TYPE>
2
5
10

$$$$
