66761
  -OEChem-11232108443D

 23 23  0     0  0  0  0  0  0999 V2000
   -3.0421    0.6134    0.8207 N   0  0  0  0  0  0  0  0  0  0  0  0
   -0.8593    0.3095   -0.2626 C   0  0  0  0  0  0  0  0  0  0  0  0
   -0.2804   -0.9491   -0.1007 C   0  0  0  0  0  0  0  0  0  0  0  0
    1.8989    0.0771    0.0853 C   0  0  0  0  0  0  0  0  0  0  0  0
    1.0986   -1.0653    0.0732 C   0  0  0  0  0  0  0  0  0  0  0  0
   -2.3332    0.4594   -0.4500 C   0  0  0  0  0  0  0  0  0  0  0  0
   -0.0591    1.4521   -0.2507 C   0  0  0  0  0  0  0  0  0  0  0  0
    1.3199    1.3358   -0.0767 C   0  0  0  0  0  0  0  0  0  0  0  0
   -1.1168   -2.1863   -0.1096 C   0  0  0  0  0  0  0  0  0  0  0  0
    3.3734   -0.0466    0.2711 C   0  0  0  0  0  0  0  0  0  0  0  0
    1.5552   -2.0446    0.1971 H   0  0  0  0  0  0  0  0  0  0  0  0
   -2.5385    1.3377   -1.0752 H   0  0  0  0  0  0  0  0  0  0  0  0
   -2.7567   -0.3842   -1.0048 H   0  0  0  0  0  0  0  0  0  0  0  0
   -0.4962    2.4395   -0.3743 H   0  0  0  0  0  0  0  0  0  0  0  0
    1.9327    2.2334   -0.0707 H   0  0  0  0  0  0  0  0  0  0  0  0
   -0.5260   -3.0729    0.1469 H   0  0  0  0  0  0  0  0  0  0  0  0
   -1.9226   -2.1233    0.6286 H   0  0  0  0  0  0  0  0  0  0  0  0
   -1.5405   -2.3573   -1.1044 H   0  0  0  0  0  0  0  0  0  0  0  0
    3.6180   -0.8887    0.9275 H   0  0  0  0  0  0  0  0  0  0  0  0
    3.8622   -0.2006   -0.6960 H   0  0  0  0  0  0  0  0  0  0  0  0
    3.7920    0.8529    0.7353 H   0  0  0  0  0  0  0  0  0  0  0  0
   -4.0390    0.7207    0.6367 H   0  0  0  0  0  0  0  0  0  0  0  0
   -2.7461    1.4775    1.2740 H   0  0  0  0  0  0  0  0  0  0  0  0
  1  6  1  0  0  0  0
  1 22  1  0  0  0  0
  1 23  1  0  0  0  0
  2  3  2  0  0  0  0
  2  6  1  0  0  0  0
  2  7  1  0  0  0  0
  3  5  1  0  0  0  0
  3  9  1  0  0  0  0
  4  5  2  0  0  0  0
  4  8  1  0  0  0  0
  4 10  1  0  0  0  0
  5 11  1  0  0  0  0
  6 12  1  0  0  0  0
  6 13  1  0  0  0  0
  7  8  2  0  0  0  0
  7 14  1  0  0  0  0
  8 15  1  0  0  0  0
  9 16  1  0  0  0  0
  9 17  1  0  0  0  0
  9 18  1  0  0  0  0
 10 19  1  0  0  0  0
 10 20  1  0  0  0  0
 10 21  1  0  0  0  0
M  END
> <PUBCHEM_COMPOUND_CID>
66761

> <PUBCHEM_CONFORMER_RMSD>
0.4

> <PUBCHEM_CONFORMER_DIVERSEORDER>
1
3
2

> <PUBCHEM_MMFF94_PARTIAL_CHARGES>
15
1 -0.99
10 0.14
11 0.15
14 0.15
15 0.15
2 -0.14
22 0.36
23 0.36
3 -0.14
4 -0.14
5 -0.15
6 0.41
7 -0.15
8 -0.15
9 0.14

> <PUBCHEM_EFFECTIVE_ROTOR_COUNT>
1

> <PUBCHEM_PHARMACOPHORE_FEATURES>
3
1 1 cation
1 1 donor
6 2 3 4 5 7 8 rings

> <PUBCHEM_HEAVY_ATOM_COUNT>
10

> <PUBCHEM_ATOM_DEF_STEREO_COUNT>
0

> <PUBCHEM_ATOM_UDEF_STEREO_COUNT>
0

> <PUBCHEM_BOND_DEF_STEREO_COUNT>
0

> <PUBCHEM_BOND_UDEF_STEREO_COUNT>
0

> <PUBCHEM_ISOTOPIC_ATOM_COUNT>
0

> <PUBCHEM_COMPONENT_COUNT>
1

> <PUBCHEM_CACTVS_TAUTO_COUNT>
1

> <PUBCHEM_CONFORMER_ID>
000104C900000001

> <PUBCHEM_MMFF94_ENERGY>
22.8395

> <PUBCHEM_FEATURE_SELFOVERLAP>
15.223

> <PUBCHEM_SHAPE_FINGERPRINT>
10219947 1 18336830792765210849
12423570 1 11778219292954461142
14325111 11 18411134723233813709
15310529 11 16660638527645557468
16945 1 18409161100051794964
193761 8 17905325478627720732
20871998 184 18200594833731421070
21040471 1 18410854373527874764
21501502 16 18193556898630500260
23235685 24 18341608196468004552
23402655 69 18050263909678483957
23552423 10 17971186169602682086
2748010 2 18194115450537378100
29004967 10 18114466660506725841
5084963 1 18272076215109605821
528886 8 18411692171297030259
68250623 7 18119255209913221374

> <PUBCHEM_SHAPE_MULTIPOLES>
200.81
3.93
1.77
0.7
0.71
0.62
-0.03
-0.51
-0.68
-0.46
0.09
-0.2
-0.05
-0.14

> <PUBCHEM_SHAPE_SELFOVERLAP>
410.4

> <PUBCHEM_SHAPE_VOLUME>
117

> <PUBCHEM_COORDINATE_TYPE>
2
5
10

$$$$
