66929
  -OEChem-11232109223D

 28 27  0     0  0  0  0  0  0999 V2000
    0.8085   -0.0355   -0.1560 O   0  0  0  0  0  0  0  0  0  0  0  0
   -1.3457    0.9343   -0.1394 O   0  0  0  0  0  0  0  0  0  0  0  0
   -0.0005    1.0307    0.3468 C   0  0  0  0  0  0  0  0  0  0  0  0
    2.1648    0.0538    0.2589 C   0  0  0  0  0  0  0  0  0  0  0  0
   -1.9782   -0.2740    0.2619 C   0  0  0  0  0  0  0  0  0  0  0  0
    2.9361   -1.1196   -0.3256 C   0  0  0  0  0  0  0  0  0  0  0  0
   -3.3941   -0.2955   -0.2932 C   0  0  0  0  0  0  0  0  0  0  0  0
    0.5523    2.3598   -0.1518 C   0  0  0  0  0  0  0  0  0  0  0  0
    4.3963   -1.0986    0.0893 C   0  0  0  0  0  0  0  0  0  0  0  0
   -4.1394   -1.5554    0.1091 C   0  0  0  0  0  0  0  0  0  0  0  0
   -0.0171    1.0105    1.4434 H   0  0  0  0  0  0  0  0  0  0  0  0
    2.2156    0.0373    1.3537 H   0  0  0  0  0  0  0  0  0  0  0  0
    2.6323    0.9715   -0.1089 H   0  0  0  0  0  0  0  0  0  0  0  0
   -2.0009   -0.3274    1.3566 H   0  0  0  0  0  0  0  0  0  0  0  0
   -1.4216   -1.1362   -0.1224 H   0  0  0  0  0  0  0  0  0  0  0  0
    2.4724   -2.0602   -0.0051 H   0  0  0  0  0  0  0  0  0  0  0  0
    2.8589   -1.1033   -1.4194 H   0  0  0  0  0  0  0  0  0  0  0  0
   -3.9406    0.5879    0.0582 H   0  0  0  0  0  0  0  0  0  0  0  0
   -3.3620   -0.2147   -1.3864 H   0  0  0  0  0  0  0  0  0  0  0  0
    0.7721    2.3169   -1.2245 H   0  0  0  0  0  0  0  0  0  0  0  0
    1.4673    2.6522    0.3714 H   0  0  0  0  0  0  0  0  0  0  0  0
   -0.1795    3.1614   -0.0009 H   0  0  0  0  0  0  0  0  0  0  0  0
    4.4957   -1.1523    1.1782 H   0  0  0  0  0  0  0  0  0  0  0  0
    4.9253   -1.9539   -0.3423 H   0  0  0  0  0  0  0  0  0  0  0  0
    4.8898   -0.1848   -0.2564 H   0  0  0  0  0  0  0  0  0  0  0  0
   -4.2164   -1.6350    1.1982 H   0  0  0  0  0  0  0  0  0  0  0  0
   -5.1532   -1.5443   -0.3029 H   0  0  0  0  0  0  0  0  0  0  0  0
   -3.6304   -2.4491   -0.2657 H   0  0  0  0  0  0  0  0  0  0  0  0
  1  3  1  0  0  0  0
  1  4  1  0  0  0  0
  2  3  1  0  0  0  0
  2  5  1  0  0  0  0
  3  8  1  0  0  0  0
  3 11  1  0  0  0  0
  4  6  1  0  0  0  0
  4 12  1  0  0  0  0
  4 13  1  0  0  0  0
  5  7  1  0  0  0  0
  5 14  1  0  0  0  0
  5 15  1  0  0  0  0
  6  9  1  0  0  0  0
  6 16  1  0  0  0  0
  6 17  1  0  0  0  0
  7 10  1  0  0  0  0
  7 18  1  0  0  0  0
  7 19  1  0  0  0  0
  8 20  1  0  0  0  0
  8 21  1  0  0  0  0
  8 22  1  0  0  0  0
  9 23  1  0  0  0  0
  9 24  1  0  0  0  0
  9 25  1  0  0  0  0
 10 26  1  0  0  0  0
 10 27  1  0  0  0  0
 10 28  1  0  0  0  0
M  END
> <PUBCHEM_COMPOUND_CID>
66929

> <PUBCHEM_CONFORMER_RMSD>
0.6

> <PUBCHEM_CONFORMER_DIVERSEORDER>
1
71
38
56
30
59
79
57
64
78
73
70
44
20
69
31
80
11
60
77
65
37
10
6
61
54
40
55
76
74
35
46
42
15
27
66
47
75
22
72
51
58
7
62
39
12
43
33
26
2
63
68
36
14
52
28
50
67
8
3
41
24
45
48
23
4
17
21
16
25
32
9
29
19
49
5
13
34
53
18

> <PUBCHEM_MMFF94_PARTIAL_CHARGES>
5
1 -0.56
2 -0.56
3 0.56
4 0.28
5 0.28

> <PUBCHEM_EFFECTIVE_ROTOR_COUNT>
6

> <PUBCHEM_PHARMACOPHORE_FEATURES>
4
1 1 acceptor
1 10 hydrophobe
1 2 acceptor
1 9 hydrophobe

> <PUBCHEM_HEAVY_ATOM_COUNT>
10

> <PUBCHEM_ATOM_DEF_STEREO_COUNT>
0

> <PUBCHEM_ATOM_UDEF_STEREO_COUNT>
0

> <PUBCHEM_BOND_DEF_STEREO_COUNT>
0

> <PUBCHEM_BOND_UDEF_STEREO_COUNT>
0

> <PUBCHEM_ISOTOPIC_ATOM_COUNT>
0

> <PUBCHEM_COMPONENT_COUNT>
1

> <PUBCHEM_CACTVS_TAUTO_COUNT>
1

> <PUBCHEM_CONFORMER_ID>
0001057100000001

> <PUBCHEM_MMFF94_ENERGY>
10.4027

> <PUBCHEM_FEATURE_SELFOVERLAP>
20.335

> <PUBCHEM_SHAPE_FINGERPRINT>
12032990 46 18411982451099291298
12346645 44 9151177549582704823
14251710 61 18336269054325298795
14252887 29 17918000460016220238
14390081 3 8646776599109760467
15477762 27 18337672043661640141
15775835 57 8574712394705824291
177051 138 18412826863424180734
20281407 28 18342177722132355250
20645477 70 18264479775689891431
20671657 53 18408326600675149957
20711985 327 18343871017088799492
20871998 184 18059289838578051516
20871998 22 18129954385717049222
20871999 31 18186799141120543493
21119208 17 15647054858640416610
22485316 2 18410570656641681930
23402539 116 18261388893726894462
23402655 69 12035719925464512459
23532345 42 18411690007108240984

> <PUBCHEM_SHAPE_MULTIPOLES>
194.06
7.73
1.9
0.65
0.3
0.95
-0.01
-6.16
0.11
-0.16
0.08
-0.01
-0.01
0.12

> <PUBCHEM_SHAPE_SELFOVERLAP>
343.534

> <PUBCHEM_SHAPE_VOLUME>
127.7

> <PUBCHEM_COORDINATE_TYPE>
2
5
10

$$$$
