66955
  -OEChem-11232109043D

 38 37  0     0  0  0  0  0  0999 V2000
   -1.4036    0.5606    0.0028 O   0  0  0  0  0  0  0  0  0  0  0  0
   -0.3667   -1.4961    0.1277 O   0  0  0  0  0  0  0  0  0  0  0  0
    3.4842    0.5619   -0.0205 C   0  0  0  0  0  0  0  0  0  0  0  0
   -5.1953    0.4189   -0.0696 C   0  0  0  0  0  0  0  0  0  0  0  0
    2.2136   -0.2932    0.0106 C   0  0  0  0  0  0  0  0  0  0  0  0
   -3.7663    0.9855   -0.0795 C   0  0  0  0  0  0  0  0  0  0  0  0
    4.7405   -0.3112   -0.0121 C   0  0  0  0  0  0  0  0  0  0  0  0
    0.9408    0.5531    0.0311 C   0  0  0  0  0  0  0  0  0  0  0  0
   -2.6821   -0.0827   -0.0003 C   0  0  0  0  0  0  0  0  0  0  0  0
    6.0096    0.5406   -0.0144 C   0  0  0  0  0  0  0  0  0  0  0  0
   -5.5286   -0.2980    1.2394 C   0  0  0  0  0  0  0  0  0  0  0  0
   -5.3820   -0.5411   -1.2468 C   0  0  0  0  0  0  0  0  0  0  0  0
   -0.3247   -0.2747    0.0708 C   0  0  0  0  0  0  0  0  0  0  0  0
    7.2604   -0.3233   -0.0391 C   0  0  0  0  0  0  0  0  0  0  0  0
    3.4791    1.1943   -0.9164 H   0  0  0  0  0  0  0  0  0  0  0  0
    3.4954    1.2307    0.8486 H   0  0  0  0  0  0  0  0  0  0  0  0
   -5.8906    1.2589   -0.1899 H   0  0  0  0  0  0  0  0  0  0  0  0
    2.2312   -0.9429    0.8948 H   0  0  0  0  0  0  0  0  0  0  0  0
    2.1963   -0.9571   -0.8630 H   0  0  0  0  0  0  0  0  0  0  0  0
   -3.6117    1.5838   -0.9870 H   0  0  0  0  0  0  0  0  0  0  0  0
   -3.6419    1.6887    0.7540 H   0  0  0  0  0  0  0  0  0  0  0  0
    4.7351   -0.9573    0.8743 H   0  0  0  0  0  0  0  0  0  0  0  0
    4.7356   -0.9680   -0.8905 H   0  0  0  0  0  0  0  0  0  0  0  0
    0.9088    1.1792   -0.8680 H   0  0  0  0  0  0  0  0  0  0  0  0
    0.9459    1.2023    0.9139 H   0  0  0  0  0  0  0  0  0  0  0  0
   -2.7253   -0.7512   -0.8660 H   0  0  0  0  0  0  0  0  0  0  0  0
   -2.7789   -0.6686    0.9194 H   0  0  0  0  0  0  0  0  0  0  0  0
    6.0132    1.2014   -0.8891 H   0  0  0  0  0  0  0  0  0  0  0  0
    6.0305    1.1803    0.8756 H   0  0  0  0  0  0  0  0  0  0  0  0
   -5.3469    0.3570    2.0978 H   0  0  0  0  0  0  0  0  0  0  0  0
   -6.5858   -0.5846    1.2574 H   0  0  0  0  0  0  0  0  0  0  0  0
   -4.9399   -1.2108    1.3742 H   0  0  0  0  0  0  0  0  0  0  0  0
   -5.0703   -0.0769   -2.1884 H   0  0  0  0  0  0  0  0  0  0  0  0
   -4.8258   -1.4751   -1.1182 H   0  0  0  0  0  0  0  0  0  0  0  0
   -6.4398   -0.8095   -1.3472 H   0  0  0  0  0  0  0  0  0  0  0  0
    7.3039   -0.9758    0.8389 H   0  0  0  0  0  0  0  0  0  0  0  0
    8.1559    0.3061   -0.0394 H   0  0  0  0  0  0  0  0  0  0  0  0
    7.2862   -0.9510   -0.9356 H   0  0  0  0  0  0  0  0  0  0  0  0
  1  9  1  0  0  0  0
  1 13  1  0  0  0  0
  2 13  2  0  0  0  0
  3  5  1  0  0  0  0
  3  7  1  0  0  0  0
  3 15  1  0  0  0  0
  3 16  1  0  0  0  0
  4  6  1  0  0  0  0
  4 11  1  0  0  0  0
  4 12  1  0  0  0  0
  4 17  1  0  0  0  0
  5  8  1  0  0  0  0
  5 18  1  0  0  0  0
  5 19  1  0  0  0  0
  6  9  1  0  0  0  0
  6 20  1  0  0  0  0
  6 21  1  0  0  0  0
  7 10  1  0  0  0  0
  7 22  1  0  0  0  0
  7 23  1  0  0  0  0
  8 13  1  0  0  0  0
  8 24  1  0  0  0  0
  8 25  1  0  0  0  0
  9 26  1  0  0  0  0
  9 27  1  0  0  0  0
 10 14  1  0  0  0  0
 10 28  1  0  0  0  0
 10 29  1  0  0  0  0
 11 30  1  0  0  0  0
 11 31  1  0  0  0  0
 11 32  1  0  0  0  0
 12 33  1  0  0  0  0
 12 34  1  0  0  0  0
 12 35  1  0  0  0  0
 14 36  1  0  0  0  0
 14 37  1  0  0  0  0
 14 38  1  0  0  0  0
M  END
> <PUBCHEM_COMPOUND_CID>
66955

> <PUBCHEM_CONFORMER_RMSD>
1

> <PUBCHEM_CONFORMER_DIVERSEORDER>
1
189
236
302
423
17
80
7
136
356
326
331
2
313
337
45
334
101
6
42
463
19
211
452
49
157
23
151
191
22
262
70
153
33
40
195
18
316
252
84
291
103
369
60
378
71
278
25
444
218
31
156
116
509
255
86
10
35
551
30
539
138
14
543
32
192
9
43
265
3
450
185
464
427
57
377
97
415
402
405
122
289
398
504
137
72
144
102
81
174
408
117
244
491

> <PUBCHEM_MMFF94_PARTIAL_CHARGES>
5
1 -0.43
13 0.66
2 -0.57
8 0.06
9 0.28

> <PUBCHEM_EFFECTIVE_ROTOR_COUNT>
9

> <PUBCHEM_PHARMACOPHORE_FEATURES>
4
1 14 hydrophobe
1 2 acceptor
3 4 11 12 hydrophobe
5 3 5 7 8 10 hydrophobe

> <PUBCHEM_HEAVY_ATOM_COUNT>
14

> <PUBCHEM_ATOM_DEF_STEREO_COUNT>
0

> <PUBCHEM_ATOM_UDEF_STEREO_COUNT>
0

> <PUBCHEM_BOND_DEF_STEREO_COUNT>
0

> <PUBCHEM_BOND_UDEF_STEREO_COUNT>
0

> <PUBCHEM_ISOTOPIC_ATOM_COUNT>
0

> <PUBCHEM_COMPONENT_COUNT>
1

> <PUBCHEM_CACTVS_TAUTO_COUNT>
1

> <PUBCHEM_CONFORMER_ID>
0001058B00000001

> <PUBCHEM_MMFF94_ENERGY>
6.0336

> <PUBCHEM_FEATURE_SELFOVERLAP>
20.298

> <PUBCHEM_SHAPE_FINGERPRINT>
11315181 36 16917065586368012049
12091667 2 18412544306194735277
12815109 37 10159697993080035088
13533116 47 17917149395620685842
14123238 8 18411135831319473877
14123256 10 18410570691570996311
1420 363 18261117369598428586
14251718 22 17775283871941507060
14251764 18 18411697682758111192
14251764 46 17703790319016252236
15048467 5 13262393349699068805
17093844 174 14117514333863559335
17834072 33 17989202672451148644
17834076 25 18131632283853676748
187816 3 17418094316971320642
19489759 90 14996281414488313677
20281389 69 18187080655390594300
20621476 8 17703236126211042580
20645477 70 18059016073648386238
20767249 213 18040436603212720660
220451 1 17561365075864418262
23402539 116 17775563139468830709
23521765 1 18341895190430185312
23536379 177 16200435753943694266
3545911 37 18408886235462295442
366044 4 18409729564616896626
42788 4 18410292510676049812
57583515 80 12829488142764346789
59755656 520 18187359947875344874
7062679 117 18130502020239294119
8209 1 18408603660362085821

> <PUBCHEM_SHAPE_MULTIPOLES>
276.37
18.38
0.95
0.84
14.44
0.08
-0.01
0.22
0.26
-0.23
0.01
-1.25
0.09
-0.12

> <PUBCHEM_SHAPE_SELFOVERLAP>
504.75

> <PUBCHEM_SHAPE_VOLUME>
176.5

> <PUBCHEM_COORDINATE_TYPE>
2
5
10

$$$$
