6708682
  -OEChem-11232108533D

 36 35  0     1  0  0  0  0  0999 V2000
    1.8653    0.3406   -0.0580 O   0  0  0  0  0  0  0  0  0  0  0  0
    4.1412    0.4658   -0.4352 O   0  0  0  0  0  0  0  0  0  0  0  0
   -0.2452   -1.6787    0.4067 C   0  0  2  0  0  0  0  0  0  0  0  0
   -1.7254   -2.1141    0.3004 C   0  0  0  0  0  0  0  0  0  0  0  0
    0.3223   -1.2538   -0.9606 C   0  0  0  0  0  0  0  0  0  0  0  0
   -2.6753   -1.0935   -0.3430 C   0  0  0  0  0  0  0  0  0  0  0  0
    0.5661   -2.8281    1.0179 C   0  0  0  0  0  0  0  0  0  0  0  0
    1.7757   -0.7946   -0.9105 C   0  0  0  0  0  0  0  0  0  0  0  0
   -2.7700    0.1864    0.4397 C   0  0  0  0  0  0  0  0  0  0  0  0
   -2.5632    1.4462    0.0113 C   0  0  0  0  0  0  0  0  0  0  0  0
   -2.6758    2.6854    0.8528 C   0  0  0  0  0  0  0  0  0  0  0  0
   -2.1878    1.7073   -1.4238 C   0  0  0  0  0  0  0  0  0  0  0  0
    3.1151    0.8743    0.0917 C   0  0  0  0  0  0  0  0  0  0  0  0
    3.0570    2.0568    1.0105 C   0  0  0  0  0  0  0  0  0  0  0  0
   -0.1886   -0.8278    1.0970 H   0  0  0  0  0  0  0  0  0  0  0  0
   -2.0963   -2.3622    1.3040 H   0  0  0  0  0  0  0  0  0  0  0  0
   -1.7845   -3.0425   -0.2831 H   0  0  0  0  0  0  0  0  0  0  0  0
   -0.2652   -0.4221   -1.3582 H   0  0  0  0  0  0  0  0  0  0  0  0
    0.2342   -2.0829   -1.6730 H   0  0  0  0  0  0  0  0  0  0  0  0
   -2.4060   -0.9588   -1.3909 H   0  0  0  0  0  0  0  0  0  0  0  0
   -3.6798   -1.5362   -0.3586 H   0  0  0  0  0  0  0  0  0  0  0  0
    0.6395   -3.6748    0.3273 H   0  0  0  0  0  0  0  0  0  0  0  0
    1.5790   -2.5085    1.2804 H   0  0  0  0  0  0  0  0  0  0  0  0
    0.0973   -3.1855    1.9414 H   0  0  0  0  0  0  0  0  0  0  0  0
    2.0911   -0.5075   -1.9208 H   0  0  0  0  0  0  0  0  0  0  0  0
    2.4390   -1.5914   -0.5589 H   0  0  0  0  0  0  0  0  0  0  0  0
   -3.0531    0.0577    1.4840 H   0  0  0  0  0  0  0  0  0  0  0  0
   -2.9290    2.4443    1.8904 H   0  0  0  0  0  0  0  0  0  0  0  0
   -3.4573    3.3451    0.4623 H   0  0  0  0  0  0  0  0  0  0  0  0
   -1.7261    3.2298    0.8583 H   0  0  0  0  0  0  0  0  0  0  0  0
   -1.1191    1.9351   -1.4953 H   0  0  0  0  0  0  0  0  0  0  0  0
   -2.4185    0.8976   -2.1167 H   0  0  0  0  0  0  0  0  0  0  0  0
   -2.7397    2.5781   -1.7974 H   0  0  0  0  0  0  0  0  0  0  0  0
    2.6984    1.7438    1.9943 H   0  0  0  0  0  0  0  0  0  0  0  0
    2.4019    2.8226    0.5875 H   0  0  0  0  0  0  0  0  0  0  0  0
    4.0597    2.4790    1.1227 H   0  0  0  0  0  0  0  0  0  0  0  0
  1  8  1  0  0  0  0
  1 13  1  0  0  0  0
  2 13  2  0  0  0  0
  3  4  1  0  0  0  0
  3  5  1  0  0  0  0
  3  7  1  0  0  0  0
  3 15  1  0  0  0  0
  4  6  1  0  0  0  0
  4 16  1  0  0  0  0
  4 17  1  0  0  0  0
  5  8  1  0  0  0  0
  5 18  1  0  0  0  0
  5 19  1  0  0  0  0
  6  9  1  0  0  0  0
  6 20  1  0  0  0  0
  6 21  1  0  0  0  0
  7 22  1  0  0  0  0
  7 23  1  0  0  0  0
  7 24  1  0  0  0  0
  8 25  1  0  0  0  0
  8 26  1  0  0  0  0
  9 10  2  0  0  0  0
  9 27  1  0  0  0  0
 10 11  1  0  0  0  0
 10 12  1  0  0  0  0
 11 28  1  0  0  0  0
 11 29  1  0  0  0  0
 11 30  1  0  0  0  0
 12 31  1  0  0  0  0
 12 32  1  0  0  0  0
 12 33  1  0  0  0  0
 13 14  1  0  0  0  0
 14 34  1  0  0  0  0
 14 35  1  0  0  0  0
 14 36  1  0  0  0  0
M  END
> <PUBCHEM_COMPOUND_CID>
6708682

> <PUBCHEM_CONFORMER_RMSD>
0.8

> <PUBCHEM_CONFORMER_DIVERSEORDER>
3
71
182
211
24
83
202
176
30
100
56
162
37
77
55
179
208
139
203
112
134
171
140
39
197
123
215
173
122
117
235
237
213
217
46
168
85
88
129
20
238
199
224
196
233
230
206
124
78
116
5
114
169
225
74
11
164
26
40
207
187
163
87
184
210
170
21
167
12
198
99
45
91
93
29
107
190
27
120
165
34
220
194
177
2
10
205
161
81
146
157
50
68
111
214
154
1
6
63
232
223
212
22
133
160
23
102
70
135
79
108
236
219
44
159
42
193
106
204
137
125
216
143
7
15
16
109
185
152
149
200
128
75
132
147
110
47
126
151
59
226
231
155
72
174
90
189
31
138
131
144
209
9
64
221
95
4
25
218
145
136
73
32
191
96
13
142
61
84
43
36
175
195
150
181
166
80
18
188
234
49
48
17
172
8
19
98
33
69
148
94
153
92
239
130
201
127
41
222
65
228
156
158
141
186
183
104
62
229
180
192
66
121
178
118
97
103
57
101
58
54
60
113
51
52
227
89
76
119
105
115
28
82
86
14
38
67
53
35

> <PUBCHEM_MMFF94_PARTIAL_CHARGES>
11
1 -0.43
10 -0.28
11 0.14
12 0.14
13 0.66
14 0.06
2 -0.57
27 0.15
6 0.14
8 0.28
9 -0.29

> <PUBCHEM_EFFECTIVE_ROTOR_COUNT>
7

> <PUBCHEM_PHARMACOPHORE_FEATURES>
4
1 2 acceptor
1 7 hydrophobe
3 10 11 12 hydrophobe
5 3 4 5 6 9 hydrophobe

> <PUBCHEM_HEAVY_ATOM_COUNT>
14

> <PUBCHEM_ATOM_DEF_STEREO_COUNT>
1

> <PUBCHEM_ATOM_UDEF_STEREO_COUNT>
0

> <PUBCHEM_BOND_DEF_STEREO_COUNT>
0

> <PUBCHEM_BOND_UDEF_STEREO_COUNT>
0

> <PUBCHEM_ISOTOPIC_ATOM_COUNT>
0

> <PUBCHEM_COMPONENT_COUNT>
1

> <PUBCHEM_CACTVS_TAUTO_COUNT>
1

> <PUBCHEM_CONFORMER_ID>
00665DCA00000003

> <PUBCHEM_MMFF94_ENERGY>
15.0525

> <PUBCHEM_FEATURE_SELFOVERLAP>
20.302

> <PUBCHEM_SHAPE_FINGERPRINT>
11615756 56 18271523208005585152
13294875 104 18194393403846770858
13464514 151 18198073473491391022
13618510 140 18337951177828673761
14123250 116 18130508531256915841
15775835 57 18335989666343465025
20304884 271 18271529680573930809
20510252 161 18191586569240264538
20621476 13 17183619897520971493
20671657 1 18049725122572375875
20767249 271 18410854390971494472
21041028 32 16104461239703096795
21524375 3 18410292493048002254
22182937 141 18200607920813179321
23402539 116 18196085779765012703
23557571 272 18266752461465534503
305870 269 18187643557413579634
3524813 1 17986670570171189096
4175511 71 17401204474070823867
526903 126 18342452647521634697
539174 4 17389343191938583298
8050 44 18337947896647681165
81228 2 18118136985034192155

> <PUBCHEM_SHAPE_MULTIPOLES>
276.37
6.08
3.3
1.14
3.81
0.22
0.14
-4.29
-0.15
-1.04
-1.08
-0.08
-0.16
0.34

> <PUBCHEM_SHAPE_SELFOVERLAP>
513.974

> <PUBCHEM_SHAPE_VOLUME>
173.9

> <PUBCHEM_COORDINATE_TYPE>
2
5
10

$$$$
