67148
  -OEChem-11232108533D

 37 38  0     0  0  0  0  0  0999 V2000
   -0.4349    0.0461    0.2592 O   0  0  0  0  0  0  0  0  0  0  0  0
   -2.0587    0.1151   -1.3775 O   0  0  0  0  0  0  0  0  0  0  0  0
    1.9453    0.0526   -0.0714 C   0  0  0  0  0  0  0  0  0  0  0  0
    3.0802    0.1054   -1.0927 C   0  0  0  0  0  0  0  0  0  0  0  0
    0.5818    0.0831   -0.7475 C   0  0  0  0  0  0  0  0  0  0  0  0
    4.4314    0.0302   -0.4292 C   0  0  0  0  0  0  0  0  0  0  0  0
   -2.6770    0.0255    0.9739 C   0  0  0  0  0  0  0  0  0  0  0  0
    5.0659    1.2010   -0.0402 C   0  0  0  0  0  0  0  0  0  0  0  0
    5.0192   -1.2081   -0.2172 C   0  0  0  0  0  0  0  0  0  0  0  0
   -4.1129   -0.0106    0.5725 C   0  0  0  0  0  0  0  0  0  0  0  0
   -1.7211    0.0679   -0.2025 C   0  0  0  0  0  0  0  0  0  0  0  0
    6.3162    1.1316    0.5741 C   0  0  0  0  0  0  0  0  0  0  0  0
    6.2695   -1.2774    0.3973 C   0  0  0  0  0  0  0  0  0  0  0  0
    6.9180   -0.1074    0.7928 C   0  0  0  0  0  0  0  0  0  0  0  0
   -4.8190    1.1800    0.3996 C   0  0  0  0  0  0  0  0  0  0  0  0
   -4.7500   -1.2349    0.3695 C   0  0  0  0  0  0  0  0  0  0  0  0
   -6.1619    1.1463    0.0241 C   0  0  0  0  0  0  0  0  0  0  0  0
   -6.0929   -1.2685   -0.0061 C   0  0  0  0  0  0  0  0  0  0  0  0
   -6.7988   -0.0778   -0.1788 C   0  0  0  0  0  0  0  0  0  0  0  0
    2.0215    0.8917    0.6324 H   0  0  0  0  0  0  0  0  0  0  0  0
    2.0216   -0.8528    0.5448 H   0  0  0  0  0  0  0  0  0  0  0  0
    2.9800   -0.7184   -1.8113 H   0  0  0  0  0  0  0  0  0  0  0  0
    3.0117    1.0267   -1.6855 H   0  0  0  0  0  0  0  0  0  0  0  0
    0.4735    1.0018   -1.3357 H   0  0  0  0  0  0  0  0  0  0  0  0
    0.4688   -0.7850   -1.4074 H   0  0  0  0  0  0  0  0  0  0  0  0
   -2.4880    0.9057    1.6006 H   0  0  0  0  0  0  0  0  0  0  0  0
   -2.4404   -0.8594    1.5775 H   0  0  0  0  0  0  0  0  0  0  0  0
    4.6045    2.1706   -0.2043 H   0  0  0  0  0  0  0  0  0  0  0  0
    4.5214   -2.1250   -0.5199 H   0  0  0  0  0  0  0  0  0  0  0  0
    6.8209    2.0424    0.8828 H   0  0  0  0  0  0  0  0  0  0  0  0
    6.7380   -2.2422    0.5683 H   0  0  0  0  0  0  0  0  0  0  0  0
   -4.3338    2.1404    0.5524 H   0  0  0  0  0  0  0  0  0  0  0  0
   -4.2106   -2.1696    0.4987 H   0  0  0  0  0  0  0  0  0  0  0  0
    7.8914   -0.1614    1.2715 H   0  0  0  0  0  0  0  0  0  0  0  0
   -6.7114    2.0733   -0.1112 H   0  0  0  0  0  0  0  0  0  0  0  0
   -6.5888   -2.2215   -0.1648 H   0  0  0  0  0  0  0  0  0  0  0  0
   -7.8443   -0.1041   -0.4716 H   0  0  0  0  0  0  0  0  0  0  0  0
  1  5  1  0  0  0  0
  1 11  1  0  0  0  0
  2 11  2  0  0  0  0
  3  4  1  0  0  0  0
  3  5  1  0  0  0  0
  3 20  1  0  0  0  0
  3 21  1  0  0  0  0
  4  6  1  0  0  0  0
  4 22  1  0  0  0  0
  4 23  1  0  0  0  0
  5 24  1  0  0  0  0
  5 25  1  0  0  0  0
  6  8  2  0  0  0  0
  6  9  1  0  0  0  0
  7 10  1  0  0  0  0
  7 11  1  0  0  0  0
  7 26  1  0  0  0  0
  7 27  1  0  0  0  0
  8 12  1  0  0  0  0
  8 28  1  0  0  0  0
  9 13  2  0  0  0  0
  9 29  1  0  0  0  0
 10 15  2  0  0  0  0
 10 16  1  0  0  0  0
 12 14  2  0  0  0  0
 12 30  1  0  0  0  0
 13 14  1  0  0  0  0
 13 31  1  0  0  0  0
 14 34  1  0  0  0  0
 15 17  1  0  0  0  0
 15 32  1  0  0  0  0
 16 18  2  0  0  0  0
 16 33  1  0  0  0  0
 17 19  2  0  0  0  0
 17 35  1  0  0  0  0
 18 19  1  0  0  0  0
 18 36  1  0  0  0  0
 19 37  1  0  0  0  0
M  END
> <PUBCHEM_COMPOUND_CID>
67148

> <PUBCHEM_CONFORMER_RMSD>
0.8

> <PUBCHEM_CONFORMER_DIVERSEORDER>
1
235
192
108
123
130
189
127
279
52
135
265
58
182
176
97
184
276
298
15
300
273
57
171
153
60
180
302
330
37
255
299
282
272
109
329
46
226
102
206
72
242
215
285
91
85
208
256
138
92
308
4
35
54
231
322
202
267
284
155
303
200
103
196
259
170
311
117
94
236
2
296
183
18
154
61
158
20
30
143
40
136
261
45
277
227
36
309
42
41
275
225
33
198
175
73
207
16
6
124
280
114
141
283
13
237
232
110
100
287
90
313
11
134
292
10
204
12
26
133
186
113
258
142
199
318
244
3
34
243
149
74
21
76
241
27
316
144
86
320
234
194
107
238
56
59
269
80
216
294
211
65
145
249
14
121
51
224
104
38
321
191
165
28
187
156
159
290
39
312
68
146
29
315
88
79
24
240
55
9
8
19
64
212
253
173
229
83
87
48
264
32
213
112
62
115
293
323
222
99
25
291
7
105
268
96
185
228
221
263
195
5
286
248
116
139
178
82
188
22
245
126
306
297
257
49
93
250
278
162
132
203
106
220
101
325
47
89
197
205
71
120
233
111
17
131
129
218
157
84
81
66
326
177
247
210
254
31
122
319
160
69
209
239
119
304
181
223
50
128
252
301
98
317
174
63
43
152
295
190
75
289
266
147
172
168
77
163
314
217
288
125
78
214
140
137
150
193
305
307
70
44
23
274
169
179
95
166
328
201
148
219
281
167
151
118
67
230
53
327
251
262
271
161
270
324
246
260
164
310

> <PUBCHEM_MMFF94_PARTIAL_CHARGES>
28
1 -0.43
10 -0.14
11 0.66
12 -0.15
13 -0.15
14 -0.15
15 -0.15
16 -0.15
17 -0.15
18 -0.15
19 -0.15
2 -0.57
28 0.15
29 0.15
30 0.15
31 0.15
32 0.15
33 0.15
34 0.15
35 0.15
36 0.15
37 0.15
4 0.14
5 0.28
6 -0.14
7 0.2
8 -0.15
9 -0.15

> <PUBCHEM_EFFECTIVE_ROTOR_COUNT>
7

> <PUBCHEM_PHARMACOPHORE_FEATURES>
3
1 2 acceptor
6 10 15 16 17 18 19 rings
6 6 8 9 12 13 14 rings

> <PUBCHEM_HEAVY_ATOM_COUNT>
19

> <PUBCHEM_ATOM_DEF_STEREO_COUNT>
0

> <PUBCHEM_ATOM_UDEF_STEREO_COUNT>
0

> <PUBCHEM_BOND_DEF_STEREO_COUNT>
0

> <PUBCHEM_BOND_UDEF_STEREO_COUNT>
0

> <PUBCHEM_ISOTOPIC_ATOM_COUNT>
0

> <PUBCHEM_COMPONENT_COUNT>
1

> <PUBCHEM_CACTVS_TAUTO_COUNT>
1

> <PUBCHEM_CONFORMER_ID>
0001064C00000001

> <PUBCHEM_MMFF94_ENERGY>
39.4632

> <PUBCHEM_FEATURE_SELFOVERLAP>
15.223

> <PUBCHEM_SHAPE_FINGERPRINT>
10 15 17846778533527642612
10638233 991 14117514372033177098
10968037 39 14764627512945123133
11315181 36 18273217508912441113
11524674 6 15430042067318546553
11719270 70 18060701667612287846
12091667 2 18333171670203464617
12236239 1 18411420613410381443
125118 31 18273217482462811528
12516196 113 18410575089021720004
12596602 18 18342739619919120178
12616971 3 16226054430463194878
12730499 353 12751245805059148756
12916748 109 15698007323120408954
13073987 5 16128106545910346682
13533116 47 18334576794572095538
13885169 127 18187925041006416829
1420 363 15140962854851517148
14251732 16 18272088326732673250
14251752 14 11963384150483840759
14251764 18 18187085070600734692
14251764 46 18410572885639823371
15183329 4 14779263111678974562
15348495 7 18187651361590514472
15716309 27 18343018899998789135
17093844 174 18113616790386146657
19489759 90 18408606955319446185
20281389 69 15697999617875304930
21150785 3 10159693608234787658
21315763 28 18412262835032879129
220451 1 11743843547164182277
221357 26 9439406822450658582
22224240 67 16917343745366460230
2297311 6 8502655900849593087
23035841 295 12685092587987487249
23081809 10 17894922840161253453
23402539 116 18259985976945359773
23424782 7 10663803196458233165
23536379 177 18410294700608107128
23559900 14 18338231687155200537
2767999 5 16128655241194282160
28498 318 15357689777814236682
29717793 49 15864073170086877230
300161 21 17060335223931611334
3004659 81 10809338949995197244
34797466 226 13326855561127092160
3545911 37 14764630811268893076
4073 2 18041847332539955922
4340502 62 18131072623761282950
542803 24 10159699070916288430
559249 180 17385726928634281403
59755656 215 15502370106577515610
6438161 24 9367080943750266412

> <PUBCHEM_SHAPE_MULTIPOLES>
379.27
22.77
1.24
0.94
3.75
0.07
0.09
0.74
-3.58
0.05
-0.11
0.24
-0.02
0.04

> <PUBCHEM_SHAPE_SELFOVERLAP>
792.608

> <PUBCHEM_SHAPE_VOLUME>
213.8

> <PUBCHEM_COORDINATE_TYPE>
2
5
10

$$$$
