67146
  -OEChem-11232109253D

 31 32  0     0  0  0  0  0  0999 V2000
    0.8906    0.5035    1.2416 O   0  0  0  0  0  0  0  0  0  0  0  0
   -0.1970    0.0142   -0.7700 O   0  0  0  0  0  0  0  0  0  0  0  0
   -1.4697    0.3870    1.2735 C   0  0  0  0  0  0  0  0  0  0  0  0
   -2.7240    0.1015    0.5189 C   0  0  0  0  0  0  0  0  0  0  0  0
    2.1017    0.4180    0.5510 C   0  0  0  0  0  0  0  0  0  0  0  0
    3.9474   -0.8863   -0.2110 C   0  0  0  0  0  0  0  0  0  0  0  0
    2.7376   -0.8017    0.4782 C   0  0  0  0  0  0  0  0  0  0  0  0
   -0.2162    0.2702    0.4265 C   0  0  0  0  0  0  0  0  0  0  0  0
   -3.3997    1.1364   -0.1279 C   0  0  0  0  0  0  0  0  0  0  0  0
   -3.2214   -1.2005    0.4594 C   0  0  0  0  0  0  0  0  0  0  0  0
    2.6136    1.5571   -0.0300 C   0  0  0  0  0  0  0  0  0  0  0  0
    4.4901    0.2507   -0.8098 C   0  0  0  0  0  0  0  0  0  0  0  0
    3.8232    1.4722   -0.7193 C   0  0  0  0  0  0  0  0  0  0  0  0
   -4.5727    0.8695   -0.8339 C   0  0  0  0  0  0  0  0  0  0  0  0
   -4.3944   -1.4673   -0.2467 C   0  0  0  0  0  0  0  0  0  0  0  0
    4.6609   -2.1923   -0.3072 C   0  0  0  0  0  0  0  0  0  0  0  0
   -5.0700   -0.4322   -0.8934 C   0  0  0  0  0  0  0  0  0  0  0  0
   -1.5083    1.4010    1.6900 H   0  0  0  0  0  0  0  0  0  0  0  0
   -1.3804   -0.3079    2.1175 H   0  0  0  0  0  0  0  0  0  0  0  0
    2.3045   -1.6802    0.9478 H   0  0  0  0  0  0  0  0  0  0  0  0
   -3.0214    2.1546   -0.0911 H   0  0  0  0  0  0  0  0  0  0  0  0
   -2.7033   -2.0160    0.9569 H   0  0  0  0  0  0  0  0  0  0  0  0
    2.0949    2.5080    0.0411 H   0  0  0  0  0  0  0  0  0  0  0  0
    5.4311    0.1971   -1.3510 H   0  0  0  0  0  0  0  0  0  0  0  0
    4.2455    2.3576   -1.1857 H   0  0  0  0  0  0  0  0  0  0  0  0
   -5.0985    1.6751   -1.3380 H   0  0  0  0  0  0  0  0  0  0  0  0
   -4.7814   -2.4809   -0.2937 H   0  0  0  0  0  0  0  0  0  0  0  0
    4.3303   -2.7361   -1.1976 H   0  0  0  0  0  0  0  0  0  0  0  0
    5.7449   -2.0471   -0.3667 H   0  0  0  0  0  0  0  0  0  0  0  0
    4.4691   -2.8131    0.5746 H   0  0  0  0  0  0  0  0  0  0  0  0
   -5.9831   -0.6401   -1.4434 H   0  0  0  0  0  0  0  0  0  0  0  0
  1  5  1  0  0  0  0
  1  8  1  0  0  0  0
  2  8  2  0  0  0  0
  3  4  1  0  0  0  0
  3  8  1  0  0  0  0
  3 18  1  0  0  0  0
  3 19  1  0  0  0  0
  4  9  2  0  0  0  0
  4 10  1  0  0  0  0
  5  7  1  0  0  0  0
  5 11  2  0  0  0  0
  6  7  2  0  0  0  0
  6 12  1  0  0  0  0
  6 16  1  0  0  0  0
  7 20  1  0  0  0  0
  9 14  1  0  0  0  0
  9 21  1  0  0  0  0
 10 15  2  0  0  0  0
 10 22  1  0  0  0  0
 11 13  1  0  0  0  0
 11 23  1  0  0  0  0
 12 13  2  0  0  0  0
 12 24  1  0  0  0  0
 13 25  1  0  0  0  0
 14 17  2  0  0  0  0
 14 26  1  0  0  0  0
 15 17  1  0  0  0  0
 15 27  1  0  0  0  0
 16 28  1  0  0  0  0
 16 29  1  0  0  0  0
 16 30  1  0  0  0  0
 17 31  1  0  0  0  0
M  END
> <PUBCHEM_COMPOUND_CID>
67146

> <PUBCHEM_CONFORMER_RMSD>
0.6

> <PUBCHEM_CONFORMER_DIVERSEORDER>
1
162
105
176
171
120
74
60
159
179
45
36
106
173
132
181
57
46
11
174
131
72
53
165
85
16
37
71
31
121
119
73
110
95
67
116
182
148
30
153
26
87
125
48
5
51
64
33
117
136
25
163
118
80
70
82
127
175
180
137
169
158
20
32
147
10
99
123
34
166
52
144
113
133
157
65
55
17
15
164
61
140
122
126
23
83
152
2
94
92
29
149
77
76
178
59
47
93
146
81
170
129
130
68
6
142
63
22
21
115
151
135
138
177
88
141
28
42
111
155
58
109
27
62
19
128
103
145
12
160
156
44
154
143
150
18
134
114
14
39
56
24
43
84
91
38
3
97
49
4
78
96
98
172
168
50
161
79
66
100
108
89
35
102
167
90
139
40
124
107
8
104
7
54
75
13
112
41
69
101
9
86

> <PUBCHEM_MMFF94_PARTIAL_CHARGES>
26
1 -0.23
10 -0.15
11 -0.15
12 -0.15
13 -0.15
14 -0.15
15 -0.15
16 0.14
17 -0.15
2 -0.57
20 0.15
21 0.15
22 0.15
23 0.15
24 0.15
25 0.15
26 0.15
27 0.15
3 0.2
31 0.15
4 -0.14
5 0.08
6 -0.14
7 -0.15
8 0.66
9 -0.15

> <PUBCHEM_EFFECTIVE_ROTOR_COUNT>
4

> <PUBCHEM_PHARMACOPHORE_FEATURES>
3
1 2 acceptor
6 4 9 10 14 15 17 rings
6 5 6 7 11 12 13 rings

> <PUBCHEM_HEAVY_ATOM_COUNT>
17

> <PUBCHEM_ATOM_DEF_STEREO_COUNT>
0

> <PUBCHEM_ATOM_UDEF_STEREO_COUNT>
0

> <PUBCHEM_BOND_DEF_STEREO_COUNT>
0

> <PUBCHEM_BOND_UDEF_STEREO_COUNT>
0

> <PUBCHEM_ISOTOPIC_ATOM_COUNT>
0

> <PUBCHEM_COMPONENT_COUNT>
1

> <PUBCHEM_CACTVS_TAUTO_COUNT>
1

> <PUBCHEM_CONFORMER_ID>
0001064A00000001

> <PUBCHEM_MMFF94_ENERGY>
46.8605

> <PUBCHEM_FEATURE_SELFOVERLAP>
15.223

> <PUBCHEM_SHAPE_FINGERPRINT>
10354089 29 9151170957150946238
10498660 4 16153426164204796429
10670039 82 14562807686711330342
11471102 20 18260834795853998984
11543360 7 18334858359035997057
12670546 177 18334294270900262167
13167823 11 18411417315113147871
14251718 22 18337391637973550188
14252887 29 13902192569370193876
14528608 73 18040436632992557948
14573314 32 18259421927095234261
14576447 43 18343590642351385558
15188451 53 13973670738118617045
15239154 128 10809344442451435623
17349148 13 16917071065960382871
17834072 33 18408323314951114180
17870717 6 18413113844728319679
1798214 20 18201719548385096986
1813 80 15339123463222693593
18186145 218 17167861967316507553
18222031 100 16271924934793124193
18785283 64 12246522714179172954
19784866 240 18129948871364266702
19862831 5 18187082845169463025
200 152 18059855060648247953
20281475 54 18202289077991078312
20369508 70 17704067413300368696
20432913 95 14764633014354981397
204376 136 12901544641907627905
20645477 70 18409450267578936598
21860390 5 17168718547494536196
221357 26 18261106357650974189
22646028 1 17203891859599474681
23402655 69 18259989271021972524
23403322 49 18131348614111936539
23557571 272 17096660974641313217
23559900 14 18411411830197142680
23596394 208 18113893836639833830
29717793 49 18342738490004955076
3004659 81 18409166572220243482
3060560 45 17894631448764705450
312423 11 16988574536118599112
32948 21 18261390005527351205
34797466 226 17894918476827791581
4028521 119 17240756277308992069
42 15 11815904461074471753
4214541 1 18409448059854833789
4280585 95 17550395033859849606
465052 167 17703795859307903615
4921388 177 17531535373053892163
4990 188 18113900463800420522
5104073 3 17703793612939788059
5281201 14 18187368735414823356
5924683 9 9367051260793349269
633830 44 17458063772148601697
77779 3 18408042922401198437
90127 26 17676211264456498897
960060 61 18113626664236411598
9709674 26 18261397809646685955
9841814 1 16415474974245523754
9971528 1 17675926508335634836

> <PUBCHEM_SHAPE_MULTIPOLES>
338.11
12.1
1.66
1.05
2.59
0.42
0.1
2.7
-3.95
-1.19
-0.2
0.24
-0.1
0

> <PUBCHEM_SHAPE_SELFOVERLAP>
721.587

> <PUBCHEM_SHAPE_VOLUME>
186.3

> <PUBCHEM_COORDINATE_TYPE>
2
5
10

$$$$
