67144
  -OEChem-11232109153D

 24 24  0     0  0  0  0  0  0999 V2000
    3.5016   -0.1865   -0.0014 O   0  0  0  0  0  0  0  0  0  0  0  0
   -2.7307   -1.3264    0.0035 O   0  0  0  0  0  0  0  0  0  0  0  0
   -0.6489   -0.2323    0.0009 C   0  0  0  0  0  0  0  0  0  0  0  0
   -2.8854    1.0779    0.0060 C   0  0  0  0  0  0  0  0  0  0  0  0
   -2.1033   -0.2476    0.0032 C   0  0  0  0  0  0  0  0  0  0  0  0
    0.0351    0.9834    0.0015 C   0  0  0  0  0  0  0  0  0  0  0  0
    0.0619   -1.4325   -0.0009 C   0  0  0  0  0  0  0  0  0  0  0  0
    2.1407   -0.2014   -0.0019 C   0  0  0  0  0  0  0  0  0  0  0  0
    1.4299    0.9988    0.0000 C   0  0  0  0  0  0  0  0  0  0  0  0
    1.4568   -1.4170   -0.0023 C   0  0  0  0  0  0  0  0  0  0  0  0
   -4.3947    0.8926   -0.0096 C   0  0  0  0  0  0  0  0  0  0  0  0
    4.1371    1.0910    0.0010 C   0  0  0  0  0  0  0  0  0  0  0  0
   -2.6144    1.6392    0.9067 H   0  0  0  0  0  0  0  0  0  0  0  0
   -2.6005    1.6520   -0.8823 H   0  0  0  0  0  0  0  0  0  0  0  0
   -0.4764    1.9407    0.0039 H   0  0  0  0  0  0  0  0  0  0  0  0
   -0.4474   -2.3925   -0.0012 H   0  0  0  0  0  0  0  0  0  0  0  0
    1.8980    1.9773    0.0008 H   0  0  0  0  0  0  0  0  0  0  0  0
    2.0053   -2.3549   -0.0033 H   0  0  0  0  0  0  0  0  0  0  0  0
   -4.7298    0.3319    0.8691 H   0  0  0  0  0  0  0  0  0  0  0  0
   -4.8986    1.8640   -0.0090 H   0  0  0  0  0  0  0  0  0  0  0  0
   -4.7128    0.3416   -0.9008 H   0  0  0  0  0  0  0  0  0  0  0  0
    3.9049    1.6542    0.9114 H   0  0  0  0  0  0  0  0  0  0  0  0
    3.9060    1.6572   -0.9077 H   0  0  0  0  0  0  0  0  0  0  0  0
    5.2177    0.9145    0.0014 H   0  0  0  0  0  0  0  0  0  0  0  0
  1  8  1  0  0  0  0
  1 12  1  0  0  0  0
  2  5  2  0  0  0  0
  3  5  1  0  0  0  0
  3  6  2  0  0  0  0
  3  7  1  0  0  0  0
  4  5  1  0  0  0  0
  4 11  1  0  0  0  0
  4 13  1  0  0  0  0
  4 14  1  0  0  0  0
  6  9  1  0  0  0  0
  6 15  1  0  0  0  0
  7 10  2  0  0  0  0
  7 16  1  0  0  0  0
  8  9  2  0  0  0  0
  8 10  1  0  0  0  0
  9 17  1  0  0  0  0
 10 18  1  0  0  0  0
 11 19  1  0  0  0  0
 11 20  1  0  0  0  0
 11 21  1  0  0  0  0
 12 22  1  0  0  0  0
 12 23  1  0  0  0  0
 12 24  1  0  0  0  0
M  END
> <PUBCHEM_COMPOUND_CID>
67144

> <PUBCHEM_CONFORMER_RMSD>
0.6

> <PUBCHEM_CONFORMER_DIVERSEORDER>
1
5
6
8
4
3
7
2

> <PUBCHEM_MMFF94_PARTIAL_CHARGES>
15
1 -0.36
10 -0.15
12 0.28
15 0.15
16 0.15
17 0.15
18 0.15
2 -0.57
3 0.09
4 0.06
5 0.42
6 -0.15
7 -0.15
8 0.08
9 -0.15

> <PUBCHEM_EFFECTIVE_ROTOR_COUNT>
3

> <PUBCHEM_PHARMACOPHORE_FEATURES>
4
1 1 acceptor
1 11 hydrophobe
1 2 acceptor
6 3 6 7 8 9 10 rings

> <PUBCHEM_HEAVY_ATOM_COUNT>
12

> <PUBCHEM_ATOM_DEF_STEREO_COUNT>
0

> <PUBCHEM_ATOM_UDEF_STEREO_COUNT>
0

> <PUBCHEM_BOND_DEF_STEREO_COUNT>
0

> <PUBCHEM_BOND_UDEF_STEREO_COUNT>
0

> <PUBCHEM_ISOTOPIC_ATOM_COUNT>
0

> <PUBCHEM_COMPONENT_COUNT>
1

> <PUBCHEM_CACTVS_TAUTO_COUNT>
2

> <PUBCHEM_CONFORMER_ID>
0001064800000001

> <PUBCHEM_MMFF94_ENERGY>
36.7122

> <PUBCHEM_FEATURE_SELFOVERLAP>
20.297

> <PUBCHEM_SHAPE_FINGERPRINT>
10219947 1 18333734593664590396
10608611 8 18410853269737422153
11062470 55 18412825776385907209
11132069 177 18410008840670396568
11401426 45 18343014497862850512
11471102 20 18411133602247271605
11543360 7 15625933291958088280
12346645 44 18410855442953645425
12932764 1 17312812758480761751
13380535 76 18410293588649725963
14144814 61 18339081484730489505
14325111 11 18410575106380560480
14897335 6 18411416185694764191
14993402 34 16056876940010292092
15775835 57 18411139129991455277
16945 1 18410856516690123107
18186145 218 18334574633765318836
193761 8 17690280409160521092
20201158 50 18410575054841056891
20645477 70 18200595782914048767
23235685 24 18410005537777118960
23402539 116 18201430402976656020
23402655 69 18270952441802626613
23463225 33 18334572413298972522
23559900 14 18272934938803452676
2748010 2 18195527214645405600
3312278 4 18413673517283824115
449060 50 18408608045914078661
449060 62 18412826859049838832
528886 8 18411413999239919027
53812653 166 18413384341325425608
7364860 26 18197215854385133630

> <PUBCHEM_SHAPE_MULTIPOLES>
235.22
6.94
1.53
0.6
1.14
0.27
0
-2.65
-0.01
-0.02
0
0.01
-0.01
0

> <PUBCHEM_SHAPE_SELFOVERLAP>
481.786

> <PUBCHEM_SHAPE_VOLUME>
137.2

> <PUBCHEM_COORDINATE_TYPE>
2
5
10

$$$$
