67285
  -OEChem-11232109253D

 26 27  0     0  0  0  0  0  0999 V2000
    2.5851   -1.0317    0.0004 N   0  0  0  0  0  0  0  0  0  0  0  0
   -2.9907   -0.0640    0.0005 C   0  0  0  0  0  0  0  0  0  0  0  0
   -1.5200   -0.3091   -0.0006 C   0  0  0  0  0  0  0  0  0  0  0  0
   -0.6318    0.7624   -0.0008 C   0  0  0  0  0  0  0  0  0  0  0  0
    0.7552    0.5363   -0.0003 C   0  0  0  0  0  0  0  0  0  0  0  0
   -3.4644    0.6845   -1.2600 C   0  0  0  0  0  0  0  0  0  0  0  0
   -3.4623    0.6860    1.2609 C   0  0  0  0  0  0  0  0  0  0  0  0
   -1.0276   -1.6082   -0.0001 C   0  0  0  0  0  0  0  0  0  0  0  0
    1.2623   -0.7799    0.0002 C   0  0  0  0  0  0  0  0  0  0  0  0
    0.3513   -1.8327    0.0002 C   0  0  0  0  0  0  0  0  0  0  0  0
    1.6716    1.5965   -0.0005 C   0  0  0  0  0  0  0  0  0  0  0  0
    3.0352    1.3402   -0.0002 C   0  0  0  0  0  0  0  0  0  0  0  0
    3.4362    0.0197    0.0003 C   0  0  0  0  0  0  0  0  0  0  0  0
   -3.5112   -1.0315    0.0015 H   0  0  0  0  0  0  0  0  0  0  0  0
   -1.0060    1.7842   -0.0010 H   0  0  0  0  0  0  0  0  0  0  0  0
   -3.0566    1.6998   -1.3111 H   0  0  0  0  0  0  0  0  0  0  0  0
   -4.5569    0.7631   -1.2716 H   0  0  0  0  0  0  0  0  0  0  0  0
   -3.1557    0.1528   -2.1670 H   0  0  0  0  0  0  0  0  0  0  0  0
   -3.1520    0.1555    2.1681 H   0  0  0  0  0  0  0  0  0  0  0  0
   -4.5549    0.7643    1.2744 H   0  0  0  0  0  0  0  0  0  0  0  0
   -3.0548    1.7015    1.3100 H   0  0  0  0  0  0  0  0  0  0  0  0
   -1.6998   -2.4621    0.0002 H   0  0  0  0  0  0  0  0  0  0  0  0
    0.7119   -2.8598    0.0006 H   0  0  0  0  0  0  0  0  0  0  0  0
    1.3279    2.6284   -0.0010 H   0  0  0  0  0  0  0  0  0  0  0  0
    3.7578    2.1478   -0.0004 H   0  0  0  0  0  0  0  0  0  0  0  0
    4.4893   -0.2415    0.0005 H   0  0  0  0  0  0  0  0  0  0  0  0
  1  9  1  0  0  0  0
  1 13  2  0  0  0  0
  2  3  1  0  0  0  0
  2  6  1  0  0  0  0
  2  7  1  0  0  0  0
  2 14  1  0  0  0  0
  3  4  2  0  0  0  0
  3  8  1  0  0  0  0
  4  5  1  0  0  0  0
  4 15  1  0  0  0  0
  5  9  2  0  0  0  0
  5 11  1  0  0  0  0
  6 16  1  0  0  0  0
  6 17  1  0  0  0  0
  6 18  1  0  0  0  0
  7 19  1  0  0  0  0
  7 20  1  0  0  0  0
  7 21  1  0  0  0  0
  8 10  2  0  0  0  0
  8 22  1  0  0  0  0
  9 10  1  0  0  0  0
 10 23  1  0  0  0  0
 11 12  2  0  0  0  0
 11 24  1  0  0  0  0
 12 13  1  0  0  0  0
 12 25  1  0  0  0  0
 13 26  1  0  0  0  0
M  END
> <PUBCHEM_COMPOUND_CID>
67285

> <PUBCHEM_CONFORMER_RMSD>
0.4

> <PUBCHEM_CONFORMER_DIVERSEORDER>
1
2

> <PUBCHEM_MMFF94_PARTIAL_CHARGES>
16
1 -0.62
10 -0.15
11 -0.15
12 -0.15
13 0.16
15 0.15
2 0.14
22 0.15
23 0.15
24 0.15
25 0.15
26 0.15
3 -0.14
4 -0.15
8 -0.15
9 0.31

> <PUBCHEM_EFFECTIVE_ROTOR_COUNT>
1

> <PUBCHEM_PHARMACOPHORE_FEATURES>
4
1 1 acceptor
3 2 6 7 hydrophobe
6 1 5 9 11 12 13 rings
6 3 4 5 8 9 10 rings

> <PUBCHEM_HEAVY_ATOM_COUNT>
13

> <PUBCHEM_ATOM_DEF_STEREO_COUNT>
0

> <PUBCHEM_ATOM_UDEF_STEREO_COUNT>
0

> <PUBCHEM_BOND_DEF_STEREO_COUNT>
0

> <PUBCHEM_BOND_UDEF_STEREO_COUNT>
0

> <PUBCHEM_ISOTOPIC_ATOM_COUNT>
0

> <PUBCHEM_COMPONENT_COUNT>
1

> <PUBCHEM_CACTVS_TAUTO_COUNT>
1

> <PUBCHEM_CONFORMER_ID>
000106D500000001

> <PUBCHEM_MMFF94_ENERGY>
36.3042

> <PUBCHEM_FEATURE_SELFOVERLAP>
20.329

> <PUBCHEM_SHAPE_FINGERPRINT>
10219947 1 18334576832371946693
10465860 228 17914071814712196329
10608611 8 18335415819905351365
10980938 120 18408884027406045618
11132069 177 18411972581475305352
11471102 20 18410289185880642037
11543360 7 15697711622800842968
124424 183 17604418618176107529
12491281 212 18271254896945141091
12654215 9 18189606168531163988
12932764 1 17894909633152720091
13380535 21 18264501731034960414
13380535 76 18411979191208798046
13705890 14 13902189304905035092
13897977 150 18411417353546054084
14144814 61 18413109463307731257
14289901 80 16371016221154446457
14325111 11 18410855498830398689
14897335 6 18341042021073148334
14911166 2 18411421696216965550
15219456 202 18114180800737495685
15309172 13 18409452483602486027
15775835 57 18410579517069360892
16945 1 18410573942275813094
17844478 74 17822298972187106533
18175812 5 17749107785871285629
18186145 218 18341899584113170492
19026448 4 16515405148875876218
19026448 5 16559030471731144574
200 152 18201431519942602455
20645477 70 18264198137066606247
20715346 28 17967254200031309725
21501502 16 18266177425484256246
21524375 3 18411134779158247711
21639500 275 18341599439124789637
2334 1 18194401327723776118
23402539 116 17632856408434226256
23402655 69 18341881971122345933
23463225 33 18408039598339117482
23493267 7 17313382288472007641
23559900 14 18200322151708241244
25 1 18410012117540383455
2748010 2 18266745859994889542
528886 8 18411414038042311250
53812653 166 18341328985218608024
63268167 104 18412261731315909457
69090 78 18340200890536212111
77492 1 17703788094212500449
81228 2 17687180202834834467

> <PUBCHEM_SHAPE_MULTIPOLES>
262.55
5.93
1.68
0.86
1.23
0.37
0
-1.85
0
-0.58
0
0.86
-0.18
0

> <PUBCHEM_SHAPE_SELFOVERLAP>
565.037

> <PUBCHEM_SHAPE_VOLUME>
145.4

> <PUBCHEM_COORDINATE_TYPE>
2
5
10

$$$$
