673160
  -OEChem-11232109103D

 33 33  0     0  0  0  0  0  0999 V2000
    1.2623   -0.6474   -0.8638 O   0  0  0  0  0  0  0  0  0  0  0  0
   -0.2007    1.7159   -0.8285 O   0  0  0  0  0  0  0  0  0  0  0  0
    1.7154   -0.3615    1.4122 O   0  0  0  0  0  0  0  0  0  0  0  0
   -4.8950    0.2802    0.4646 O   0  0  0  0  0  0  0  0  0  0  0  0
    3.5312   -0.4838   -0.2098 C   0  0  0  0  0  0  0  0  0  0  0  0
    4.0670   -1.9106   -0.2118 C   0  0  0  0  0  0  0  0  0  0  0  0
    4.3820    0.4186    0.6799 C   0  0  0  0  0  0  0  0  0  0  0  0
    2.0828   -0.4813    0.2504 C   0  0  0  0  0  0  0  0  0  0  0  0
   -0.0968   -0.6584   -0.5420 C   0  0  0  0  0  0  0  0  0  0  0  0
   -0.7975    0.5277   -0.5324 C   0  0  0  0  0  0  0  0  0  0  0  0
   -2.1543    0.5030   -0.2099 C   0  0  0  0  0  0  0  0  0  0  0  0
   -0.6859   -1.8686   -0.2450 C   0  0  0  0  0  0  0  0  0  0  0  0
   -2.7769   -0.7073    0.0950 C   0  0  0  0  0  0  0  0  0  0  0  0
   -2.0426   -1.8931    0.0774 C   0  0  0  0  0  0  0  0  0  0  0  0
   -0.2193    2.7206    0.1837 C   0  0  0  0  0  0  0  0  0  0  0  0
    1.0200    3.5795    0.0488 C   0  0  0  0  0  0  0  0  0  0  0  0
   -4.1916   -0.7333    0.4312 C   0  0  0  0  0  0  0  0  0  0  0  0
    3.5697   -0.0750   -1.2272 H   0  0  0  0  0  0  0  0  0  0  0  0
    5.1030   -1.9393   -0.5648 H   0  0  0  0  0  0  0  0  0  0  0  0
    3.4674   -2.5507   -0.8680 H   0  0  0  0  0  0  0  0  0  0  0  0
    4.0344   -2.3490    0.7919 H   0  0  0  0  0  0  0  0  0  0  0  0
    5.4124    0.4673    0.3129 H   0  0  0  0  0  0  0  0  0  0  0  0
    3.9795    1.4370    0.6981 H   0  0  0  0  0  0  0  0  0  0  0  0
    4.4064    0.0553    1.7133 H   0  0  0  0  0  0  0  0  0  0  0  0
   -2.7218    1.4304   -0.2070 H   0  0  0  0  0  0  0  0  0  0  0  0
   -0.1148   -2.7917   -0.2594 H   0  0  0  0  0  0  0  0  0  0  0  0
   -2.5135   -2.8442    0.3125 H   0  0  0  0  0  0  0  0  0  0  0  0
   -1.1156    3.3371    0.0558 H   0  0  0  0  0  0  0  0  0  0  0  0
   -0.2386    2.2715    1.1846 H   0  0  0  0  0  0  0  0  0  0  0  0
    1.0329    4.3692    0.8050 H   0  0  0  0  0  0  0  0  0  0  0  0
    1.9237    2.9711    0.1575 H   0  0  0  0  0  0  0  0  0  0  0  0
    1.0643    4.0397   -0.9438 H   0  0  0  0  0  0  0  0  0  0  0  0
   -4.6274   -1.7201    0.6628 H   0  0  0  0  0  0  0  0  0  0  0  0
  1  8  1  0  0  0  0
  1  9  1  0  0  0  0
  2 10  1  0  0  0  0
  2 15  1  0  0  0  0
  3  8  2  0  0  0  0
  4 17  2  0  0  0  0
  5  6  1  0  0  0  0
  5  7  1  0  0  0  0
  5  8  1  0  0  0  0
  5 18  1  0  0  0  0
  6 19  1  0  0  0  0
  6 20  1  0  0  0  0
  6 21  1  0  0  0  0
  7 22  1  0  0  0  0
  7 23  1  0  0  0  0
  7 24  1  0  0  0  0
  9 10  2  0  0  0  0
  9 12  1  0  0  0  0
 10 11  1  0  0  0  0
 11 13  2  0  0  0  0
 11 25  1  0  0  0  0
 12 14  2  0  0  0  0
 12 26  1  0  0  0  0
 13 14  1  0  0  0  0
 13 17  1  0  0  0  0
 14 27  1  0  0  0  0
 15 16  1  0  0  0  0
 15 28  1  0  0  0  0
 15 29  1  0  0  0  0
 16 30  1  0  0  0  0
 16 31  1  0  0  0  0
 16 32  1  0  0  0  0
 17 33  1  0  0  0  0
M  END
> <PUBCHEM_COMPOUND_CID>
673160

> <PUBCHEM_CONFORMER_RMSD>
0.8

> <PUBCHEM_CONFORMER_DIVERSEORDER>
1
36
40
17
44
24
31
8
32
30
39
42
18
22
41
14
45
11
6
15
46
35
43
37
10
19
27
12
38
47
26
34
25
48
49
16
28
23
13
7
29
21
3
9
20
33
4
5
2

> <PUBCHEM_MMFF94_PARTIAL_CHARGES>
18
1 -0.23
10 0.08
11 -0.15
12 -0.15
13 0.09
14 -0.15
15 0.28
17 0.42
2 -0.36
25 0.15
26 0.15
27 0.15
3 -0.57
33 0.06
4 -0.57
5 0.06
8 0.66
9 0.08

> <PUBCHEM_EFFECTIVE_ROTOR_COUNT>
6

> <PUBCHEM_PHARMACOPHORE_FEATURES>
5
1 2 acceptor
1 3 acceptor
1 4 acceptor
3 5 6 7 hydrophobe
6 9 10 11 12 13 14 rings

> <PUBCHEM_HEAVY_ATOM_COUNT>
17

> <PUBCHEM_ATOM_DEF_STEREO_COUNT>
0

> <PUBCHEM_ATOM_UDEF_STEREO_COUNT>
0

> <PUBCHEM_BOND_DEF_STEREO_COUNT>
0

> <PUBCHEM_BOND_UDEF_STEREO_COUNT>
0

> <PUBCHEM_ISOTOPIC_ATOM_COUNT>
0

> <PUBCHEM_COMPONENT_COUNT>
1

> <PUBCHEM_CACTVS_TAUTO_COUNT>
1

> <PUBCHEM_CONFORMER_ID>
000A458800000001

> <PUBCHEM_MMFF94_ENERGY>
47.1962

> <PUBCHEM_FEATURE_SELFOVERLAP>
25.373

> <PUBCHEM_SHAPE_FINGERPRINT>
108231 29 18334577953379445075
11132069 177 18409726274613795638
11680986 33 18046630281024084995
12119455 92 17346313761330504855
12251169 10 18340486759026914227
13140716 1 18265061413093360595
14022349 108 18194125350284456249
14787075 74 17968943127327598568
15048467 5 17775004617695036344
15375462 189 17895186722930892114
16945 1 18409439306880328679
17804303 29 18334863844094362303
18186145 218 8574440837120187278
18785283 64 17972886035790998149
200 152 13984658148766221966
20510252 161 18339077069198160504
20600515 1 18342749506707131341
20671657 1 18195813096607007445
21029758 11 18411693288489849669
21029758 27 18260838106820129749
21501502 16 18052820535836185279
21521721 280 8213841705487839207
21524375 3 17262705591526713620
22802520 49 17986109604988134196
2297311 6 18339653248268240214
23366157 5 17825949509383489557
23402539 116 18272362045278301831
23557571 272 18341901749530964492
23559900 14 18410853218941600318
23598294 1 18190732033962262873
23845131 108 17187573741345003937
2748010 2 18268413668710169732
537710 114 18261964028217802220
69474 34 18340199782134105928
7364860 26 18123471849690392020
81228 2 18193860153175443788

> <PUBCHEM_SHAPE_MULTIPOLES>
326.37
7.48
2.87
0.85
0.07
3.11
-0.08
-2.93
-1.65
-0.93
0.11
-0.21
-0.01
0.27

> <PUBCHEM_SHAPE_SELFOVERLAP>
668.685

> <PUBCHEM_SHAPE_VOLUME>
188.2

> <PUBCHEM_COORDINATE_TYPE>
2
5
10

$$$$
