67480918
  -OEChem-11232109273D

 35 35  0     1  0  0  0  0  0999 V2000
   -0.2921   -0.3099   -0.6890 O   0  0  0  0  0  0  0  0  0  0  0  0
    0.4425   -1.6245    1.0521 O   0  0  0  0  0  0  0  0  0  0  0  0
    3.1654   -1.8593    0.8738 O   0  0  0  0  0  0  0  0  0  0  0  0
   -1.5593   -0.9647   -0.6651 C   0  0  1  0  0  0  0  0  0  0  0  0
   -2.6494   -0.0116   -1.1683 C   0  0  0  0  0  0  0  0  0  0  0  0
   -1.4519   -2.1922   -1.5600 C   0  0  0  0  0  0  0  0  0  0  0  0
   -2.7462    1.2275   -0.3219 C   0  0  0  0  0  0  0  0  0  0  0  0
   -3.5728    1.3531    0.7268 C   0  0  0  0  0  0  0  0  0  0  0  0
   -4.5053    0.2724    1.1875 C   0  0  0  0  0  0  0  0  0  0  0  0
    0.6156   -0.7413    0.2266 C   0  0  0  0  0  0  0  0  0  0  0  0
    1.8862    0.0161    0.0985 C   0  0  0  0  0  0  0  0  0  0  0  0
    3.1072   -0.5732    0.4264 C   0  0  0  0  0  0  0  0  0  0  0  0
    1.8477    1.3345   -0.3553 C   0  0  0  0  0  0  0  0  0  0  0  0
   -5.8586    0.3790    0.5019 C   0  0  0  0  0  0  0  0  0  0  0  0
    4.2896    0.1559    0.3005 C   0  0  0  0  0  0  0  0  0  0  0  0
    3.0301    2.0637   -0.4812 C   0  0  0  0  0  0  0  0  0  0  0  0
    4.2511    1.4745   -0.1533 C   0  0  0  0  0  0  0  0  0  0  0  0
   -1.8155   -1.2811    0.3542 H   0  0  0  0  0  0  0  0  0  0  0  0
   -3.6091   -0.5340   -1.2385 H   0  0  0  0  0  0  0  0  0  0  0  0
   -2.4097    0.3170   -2.1883 H   0  0  0  0  0  0  0  0  0  0  0  0
   -1.1604   -1.9113   -2.5782 H   0  0  0  0  0  0  0  0  0  0  0  0
   -0.6839   -2.8814   -1.1931 H   0  0  0  0  0  0  0  0  0  0  0  0
   -2.4025   -2.7327   -1.6057 H   0  0  0  0  0  0  0  0  0  0  0  0
   -2.0976    2.0607   -0.5795 H   0  0  0  0  0  0  0  0  0  0  0  0
   -3.5833    2.2905    1.2763 H   0  0  0  0  0  0  0  0  0  0  0  0
   -4.6378    0.3692    2.2717 H   0  0  0  0  0  0  0  0  0  0  0  0
   -4.0856   -0.7261    1.0282 H   0  0  0  0  0  0  0  0  0  0  0  0
    0.9113    1.8262   -0.6054 H   0  0  0  0  0  0  0  0  0  0  0  0
   -6.3265    1.3493    0.7010 H   0  0  0  0  0  0  0  0  0  0  0  0
   -6.5312   -0.4002    0.8749 H   0  0  0  0  0  0  0  0  0  0  0  0
   -5.7754    0.2595   -0.5830 H   0  0  0  0  0  0  0  0  0  0  0  0
    5.2480   -0.2901    0.5529 H   0  0  0  0  0  0  0  0  0  0  0  0
    3.0002    3.0914   -0.8313 H   0  0  0  0  0  0  0  0  0  0  0  0
    5.1717    2.0426   -0.2505 H   0  0  0  0  0  0  0  0  0  0  0  0
    4.0930   -2.0927    1.0500 H   0  0  0  0  0  0  0  0  0  0  0  0
  1  4  1  0  0  0  0
  1 10  1  0  0  0  0
  2 10  2  0  0  0  0
  3 12  1  0  0  0  0
  3 35  1  0  0  0  0
  4  5  1  0  0  0  0
  4  6  1  0  0  0  0
  4 18  1  0  0  0  0
  5  7  1  0  0  0  0
  5 19  1  0  0  0  0
  5 20  1  0  0  0  0
  6 21  1  0  0  0  0
  6 22  1  0  0  0  0
  6 23  1  0  0  0  0
  7  8  2  0  0  0  0
  7 24  1  0  0  0  0
  8  9  1  0  0  0  0
  8 25  1  0  0  0  0
  9 14  1  0  0  0  0
  9 26  1  0  0  0  0
  9 27  1  0  0  0  0
 10 11  1  0  0  0  0
 11 12  1  0  0  0  0
 11 13  2  0  0  0  0
 12 15  2  0  0  0  0
 13 16  1  0  0  0  0
 13 28  1  0  0  0  0
 14 29  1  0  0  0  0
 14 30  1  0  0  0  0
 14 31  1  0  0  0  0
 15 17  1  0  0  0  0
 15 32  1  0  0  0  0
 16 17  2  0  0  0  0
 16 33  1  0  0  0  0
 17 34  1  0  0  0  0
M  END
> <PUBCHEM_COMPOUND_CID>
67480918

> <PUBCHEM_CONFORMER_RMSD>
1

> <PUBCHEM_CONFORMER_DIVERSEORDER>
1
82
34
80
75
13
9
56
41
31
18
74
85
32
24
17
36
61
20
83
69
72
65
76
47
89
66
92
67
52
37
71
62
33
22
91
68
40
12
50
54
2
35
14
70
57
30
55
10
58
48
15
46
25
86
11
49
42
60
19
77
3
53
5
43
29
27
23
8
87
81
21
39
78
38
28
79
4
6
16
51
64
26
59
45
88
84
63
44
73
7
90

> <PUBCHEM_MMFF94_PARTIAL_CHARGES>
22
1 -0.43
10 0.63
11 0.09
12 0.08
13 -0.15
15 -0.15
16 -0.15
17 -0.15
2 -0.57
24 0.15
25 0.15
28 0.15
3 -0.53
32 0.15
33 0.15
34 0.15
35 0.45
4 0.28
5 0.14
7 -0.29
8 -0.29
9 0.14

> <PUBCHEM_EFFECTIVE_ROTOR_COUNT>
6

> <PUBCHEM_PHARMACOPHORE_FEATURES>
4
1 14 hydrophobe
1 2 acceptor
1 3 donor
6 11 12 13 15 16 17 rings

> <PUBCHEM_HEAVY_ATOM_COUNT>
17

> <PUBCHEM_ATOM_DEF_STEREO_COUNT>
0

> <PUBCHEM_ATOM_UDEF_STEREO_COUNT>
1

> <PUBCHEM_BOND_DEF_STEREO_COUNT>
1

> <PUBCHEM_BOND_UDEF_STEREO_COUNT>
0

> <PUBCHEM_ISOTOPIC_ATOM_COUNT>
0

> <PUBCHEM_COMPONENT_COUNT>
1

> <PUBCHEM_CACTVS_TAUTO_COUNT>
4

> <PUBCHEM_CONFORMER_ID>
0405AD5600000001

> <PUBCHEM_MMFF94_ENERGY>
33.4187

> <PUBCHEM_FEATURE_SELFOVERLAP>
20.297

> <PUBCHEM_SHAPE_FINGERPRINT>
10354089 29 18408326587901056816
10366900 7 17385735655575030673
11045977 3 17822018614081111385
11796584 16 16343990213170909318
12236239 1 18343864420282653513
12403259 118 18338509725910355793
12507560 40 17967811605319290653
12815109 37 11746935408527025569
128238 76 18199752612995244007
12916748 109 17489875929538452009
13583140 156 17822562812165159103
14251752 14 8862673378557603099
14341114 176 18187655678174941721
14341114 328 18341342119645369929
15342168 16 17750525150611860644
15775835 57 18412828001247765725
18186145 218 18335696148579130486
18785283 64 18128264389138103375
20261772 1 18411700984754934205
204376 136 18201441359564893551
20645477 56 17988925603984283117
21524375 3 18201719531521933919
21652331 79 18408604764422317181
22079108 93 18114465647247631763
22854114 59 17821731632813947537
23402539 116 17632570565850231405
23402655 69 18342174527098810244
23557571 272 15625645237054310079
23598291 2 18341034281732518158
3004659 81 9583520893254554481
38570 142 18045809976831436668
474 4 18188488098550402316
5104073 3 18263914609464365040
5283173 99 11167677434081316195
53777708 50 18268419299771244310
59682541 52 13829578553787878109
7832392 63 18342170115914248004
81228 2 16228024862954024674

> <PUBCHEM_SHAPE_MULTIPOLES>
332.24
10.29
2.01
1.15
6.59
0.38
-0.08
-4.15
2.53
-0.7
-0.33
0.63
0.37
-1.39

> <PUBCHEM_SHAPE_SELFOVERLAP>
674.651

> <PUBCHEM_SHAPE_VOLUME>
192.3

> <PUBCHEM_COORDINATE_TYPE>
2
5
10

$$$$
