68110
  -OEChem-11232109433D

 19 20  0     0  0  0  0  0  0999 V2000
    0.6482    1.8477    0.1436 O   0  0  0  0  0  0  0  0  0  0  0  0
    1.7038   -2.1116    0.0147 O   0  0  0  0  0  0  0  0  0  0  0  0
    2.4138    0.1699    0.2244 C   0  0  0  0  0  0  0  0  0  0  0  0
   -0.0158   -0.4936   -0.0069 C   0  0  0  0  0  0  0  0  0  0  0  0
    1.8945    1.4385   -0.4262 C   0  0  0  0  0  0  0  0  0  0  0  0
   -0.3115    0.8714    0.0647 C   0  0  0  0  0  0  0  0  0  0  0  0
    1.3959   -0.9262    0.0495 C   0  0  0  0  0  0  0  0  0  0  0  0
   -1.0444   -1.4354   -0.0865 C   0  0  0  0  0  0  0  0  0  0  0  0
   -1.6417    1.2927    0.0906 C   0  0  0  0  0  0  0  0  0  0  0  0
   -2.3723   -1.0066   -0.0806 C   0  0  0  0  0  0  0  0  0  0  0  0
   -2.6705    0.3534    0.0128 C   0  0  0  0  0  0  0  0  0  0  0  0
    2.5729    0.3121    1.2986 H   0  0  0  0  0  0  0  0  0  0  0  0
    3.3540   -0.1328   -0.2466 H   0  0  0  0  0  0  0  0  0  0  0  0
    2.6093    2.2529   -0.2681 H   0  0  0  0  0  0  0  0  0  0  0  0
    1.7734    1.3186   -1.5110 H   0  0  0  0  0  0  0  0  0  0  0  0
   -0.8337   -2.4996   -0.1427 H   0  0  0  0  0  0  0  0  0  0  0  0
   -1.8846    2.3495    0.1612 H   0  0  0  0  0  0  0  0  0  0  0  0
   -3.1767   -1.7343   -0.1400 H   0  0  0  0  0  0  0  0  0  0  0  0
   -3.7060    0.6814    0.0248 H   0  0  0  0  0  0  0  0  0  0  0  0
  1  5  1  0  0  0  0
  1  6  1  0  0  0  0
  2  7  2  0  0  0  0
  3  5  1  0  0  0  0
  3  7  1  0  0  0  0
  3 12  1  0  0  0  0
  3 13  1  0  0  0  0
  4  6  1  0  0  0  0
  4  7  1  0  0  0  0
  4  8  2  0  0  0  0
  5 14  1  0  0  0  0
  5 15  1  0  0  0  0
  6  9  2  0  0  0  0
  8 10  1  0  0  0  0
  8 16  1  0  0  0  0
  9 11  1  0  0  0  0
  9 17  1  0  0  0  0
 10 11  2  0  0  0  0
 10 18  1  0  0  0  0
 11 19  1  0  0  0  0
M  END
> <PUBCHEM_COMPOUND_CID>
68110

> <PUBCHEM_CONFORMER_RMSD>
0.4

> <PUBCHEM_CONFORMER_DIVERSEORDER>
1

> <PUBCHEM_MMFF94_PARTIAL_CHARGES>
15
1 -0.36
10 -0.15
11 -0.15
16 0.15
17 0.15
18 0.15
19 0.15
2 -0.57
3 0.06
4 0.09
5 0.28
6 0.08
7 0.42
8 -0.15
9 -0.15

> <PUBCHEM_EFFECTIVE_ROTOR_COUNT>
0.6

> <PUBCHEM_PHARMACOPHORE_FEATURES>
4
1 1 acceptor
1 2 acceptor
6 1 3 4 5 6 7 rings
6 4 6 8 9 10 11 rings

> <PUBCHEM_HEAVY_ATOM_COUNT>
11

> <PUBCHEM_ATOM_DEF_STEREO_COUNT>
0

> <PUBCHEM_ATOM_UDEF_STEREO_COUNT>
0

> <PUBCHEM_BOND_DEF_STEREO_COUNT>
0

> <PUBCHEM_BOND_UDEF_STEREO_COUNT>
0

> <PUBCHEM_ISOTOPIC_ATOM_COUNT>
0

> <PUBCHEM_COMPONENT_COUNT>
1

> <PUBCHEM_CACTVS_TAUTO_COUNT>
2

> <PUBCHEM_CONFORMER_ID>
00010A0E00000001

> <PUBCHEM_MMFF94_ENERGY>
27.9201

> <PUBCHEM_FEATURE_SELFOVERLAP>
20.327

> <PUBCHEM_SHAPE_FINGERPRINT>
12423570 1 12533618308320065899
12524768 44 18198062482332483383
12897270 3 18337954618081432901
16945 1 18410574019664261253
17990270 104 18410011018060579586
18185500 45 18411417314896623114
193761 8 18194402186833370804
19973954 147 18410295783124462347
20201158 50 18408880745961412627
21040471 1 17833831947103260992
23402655 69 18341034239299667101
23463225 33 18334851719438414152
23552423 10 18335141994281050191
241688 4 17977384932470702240
2748010 2 18194681458270052839
5084963 1 17986681578087654000
528886 8 18266737059427363648
63268167 104 18410012104824390689
66348 1 18411420591935525495
7364860 26 18344146977744012598

> <PUBCHEM_SHAPE_MULTIPOLES>
214.64
3.51
1.98
0.63
0.53
0.21
-0.01
0
-0.03
-0.48
-0.03
-0.02
-0.03
-0.15

> <PUBCHEM_SHAPE_SELFOVERLAP>
465.457

> <PUBCHEM_SHAPE_VOLUME>
117

> <PUBCHEM_COORDINATE_TYPE>
2
5
10

$$$$
