68128
  -OEChem-11232109023D

 39 39  0     1  0  0  0  0  0999 V2000
   -1.0495    0.4761    0.1406 C   0  0  2  0  0  0  0  0  0  0  0  0
   -1.7553    0.3740   -1.2163 C   0  0  0  0  0  0  0  0  0  0  0  0
   -2.0864    0.6085    1.2686 C   0  0  0  0  0  0  0  0  0  0  0  0
   -2.7024   -0.8296   -1.2611 C   0  0  0  0  0  0  0  0  0  0  0  0
   -0.0828    1.6214    0.1658 C   0  0  0  0  0  0  0  0  0  0  0  0
   -3.5320   -0.9938   -0.0131 C   0  0  0  0  0  0  0  0  0  0  0  0
   -3.2519   -0.3256    1.1186 C   0  0  0  0  0  0  0  0  0  0  0  0
    1.3794    1.2837    0.3490 C   0  0  0  0  0  0  0  0  0  0  0  0
    1.9650    0.4112   -0.7693 C   0  0  0  0  0  0  0  0  0  0  0  0
   -4.6860   -1.9476   -0.1067 C   0  0  0  0  0  0  0  0  0  0  0  0
   -0.4945    2.8876   -0.0035 C   0  0  0  0  0  0  0  0  0  0  0  0
    3.4415    0.1776   -0.6018 C   0  0  0  0  0  0  0  0  0  0  0  0
    4.0588   -0.8293    0.0449 C   0  0  0  0  0  0  0  0  0  0  0  0
    5.5453   -1.0020    0.1739 C   0  0  0  0  0  0  0  0  0  0  0  0
    3.2509   -1.9123    0.7105 C   0  0  0  0  0  0  0  0  0  0  0  0
   -0.5085   -0.4648    0.3101 H   0  0  0  0  0  0  0  0  0  0  0  0
   -1.0238    0.2842   -2.0291 H   0  0  0  0  0  0  0  0  0  0  0  0
   -2.3397    1.2811   -1.4202 H   0  0  0  0  0  0  0  0  0  0  0  0
   -2.4947    1.6236    1.3407 H   0  0  0  0  0  0  0  0  0  0  0  0
   -1.5943    0.4026    2.2280 H   0  0  0  0  0  0  0  0  0  0  0  0
   -2.1174   -1.7456   -1.4112 H   0  0  0  0  0  0  0  0  0  0  0  0
   -3.3582   -0.7208   -2.1333 H   0  0  0  0  0  0  0  0  0  0  0  0
   -3.8842   -0.4546    1.9932 H   0  0  0  0  0  0  0  0  0  0  0  0
    1.4953    0.7738    1.3145 H   0  0  0  0  0  0  0  0  0  0  0  0
    1.9705    2.2061    0.4274 H   0  0  0  0  0  0  0  0  0  0  0  0
    1.8152    0.9120   -1.7353 H   0  0  0  0  0  0  0  0  0  0  0  0
    1.4309   -0.5401   -0.8593 H   0  0  0  0  0  0  0  0  0  0  0  0
   -4.3299   -2.9478   -0.3734 H   0  0  0  0  0  0  0  0  0  0  0  0
   -5.3935   -1.6142   -0.8729 H   0  0  0  0  0  0  0  0  0  0  0  0
   -5.2324   -2.0294    0.8388 H   0  0  0  0  0  0  0  0  0  0  0  0
    0.2123    3.7111    0.0007 H   0  0  0  0  0  0  0  0  0  0  0  0
   -1.5373    3.1436   -0.1545 H   0  0  0  0  0  0  0  0  0  0  0  0
    4.0722    0.9405   -1.0566 H   0  0  0  0  0  0  0  0  0  0  0  0
    5.8589   -1.9538   -0.2664 H   0  0  0  0  0  0  0  0  0  0  0  0
    6.0887   -0.2012   -0.3383 H   0  0  0  0  0  0  0  0  0  0  0  0
    5.8425   -0.9874    1.2274 H   0  0  0  0  0  0  0  0  0  0  0  0
    2.1790   -1.7103    0.7645 H   0  0  0  0  0  0  0  0  0  0  0  0
    3.5914   -2.0478    1.7434 H   0  0  0  0  0  0  0  0  0  0  0  0
    3.3887   -2.8605    0.1801 H   0  0  0  0  0  0  0  0  0  0  0  0
  1  2  1  0  0  0  0
  1  3  1  0  0  0  0
  1  5  1  0  0  0  0
  1 16  1  0  0  0  0
  2  4  1  0  0  0  0
  2 17  1  0  0  0  0
  2 18  1  0  0  0  0
  3  7  1  0  0  0  0
  3 19  1  0  0  0  0
  3 20  1  0  0  0  0
  4  6  1  0  0  0  0
  4 21  1  0  0  0  0
  4 22  1  0  0  0  0
  5  8  1  0  0  0  0
  5 11  2  0  0  0  0
  6  7  2  0  0  0  0
  6 10  1  0  0  0  0
  7 23  1  0  0  0  0
  8  9  1  0  0  0  0
  8 24  1  0  0  0  0
  8 25  1  0  0  0  0
  9 12  1  0  0  0  0
  9 26  1  0  0  0  0
  9 27  1  0  0  0  0
 10 28  1  0  0  0  0
 10 29  1  0  0  0  0
 10 30  1  0  0  0  0
 11 31  1  0  0  0  0
 11 32  1  0  0  0  0
 12 13  2  0  0  0  0
 12 33  1  0  0  0  0
 13 14  1  0  0  0  0
 13 15  1  0  0  0  0
 14 34  1  0  0  0  0
 14 35  1  0  0  0  0
 14 36  1  0  0  0  0
 15 37  1  0  0  0  0
 15 38  1  0  0  0  0
 15 39  1  0  0  0  0
M  END
> <PUBCHEM_COMPOUND_CID>
68128

> <PUBCHEM_CONFORMER_RMSD>
0.6

> <PUBCHEM_CONFORMER_DIVERSEORDER>
1
137
69
36
50
172
45
180
23
56
171
41
76
167
215
66
122
213
144
98
156
60
140
77
206
20
110
158
159
130
105
115
147
176
192
90
152
64
65
201
163
174
63
186
148
181
16
26
81
37
196
138
53
129
104
57
204
34
127
70
10
54
203
51
133
193
24
59
212
112
197
89
8
173
187
84
40
114
209
177
30
166
168
22
27
4
205
210
208
18
68
200
13
211
95
67
194
198
46
7
80
131
184
120
88
150
99
189
179
165
142
72
12
113
103
153
83
188
47
86
207
3
135
169
190
195
121
92
49
25
139
44
2
164
128
28
19
93
175
62
109
9
185
33
106
39
74
199
52
134
31
87
82
191
119
157
48
97
42
183
145
5
91
101
32
170
11
85
155
136
102
6
151
154
100
71
29
143
124
15
117
178
125
161
107
17
214
96
75
141
202
58
38
132
43
61
108
35
21
146
149
78
94
116
162
111
79
14
160
55
182
73
126
118
123

> <PUBCHEM_MMFF94_PARTIAL_CHARGES>
18
1 0.14
10 0.14
11 -0.3
12 -0.29
13 -0.28
14 0.14
15 0.14
23 0.15
3 0.14
31 0.15
32 0.15
33 0.15
4 0.14
5 -0.28
6 -0.28
7 -0.29
8 0.14
9 0.14

> <PUBCHEM_EFFECTIVE_ROTOR_COUNT>
4.8

> <PUBCHEM_PHARMACOPHORE_FEATURES>
4
1 11 hydrophobe
3 13 14 15 hydrophobe
4 5 8 9 12 hydrophobe
6 1 2 3 4 6 7 rings

> <PUBCHEM_HEAVY_ATOM_COUNT>
15

> <PUBCHEM_ATOM_DEF_STEREO_COUNT>
1

> <PUBCHEM_ATOM_UDEF_STEREO_COUNT>
0

> <PUBCHEM_BOND_DEF_STEREO_COUNT>
0

> <PUBCHEM_BOND_UDEF_STEREO_COUNT>
0

> <PUBCHEM_ISOTOPIC_ATOM_COUNT>
0

> <PUBCHEM_COMPONENT_COUNT>
1

> <PUBCHEM_CACTVS_TAUTO_COUNT>
1

> <PUBCHEM_CONFORMER_ID>
00010A2000000001

> <PUBCHEM_MMFF94_ENERGY>
14.8933

> <PUBCHEM_FEATURE_SELFOVERLAP>
20.299

> <PUBCHEM_SHAPE_FINGERPRINT>
11046707 91 18343303647819538040
12251169 10 16917069970780762428
12553582 1 18342740723715048606
12633257 1 15410890803302289475
12824470 246 18412263925980900929
12892183 10 15769510745638098559
13533116 47 18124880316323943603
13583140 156 13758067476688362061
14123255 52 9223234052598816758
14123260 362 10953460717137991742
1420 369 18412547591839740918
14251764 38 7924184094508622942
15342168 16 9943812196422978283
15342816 4 18340218478326874460
15375462 189 18343584040685951840
1798214 20 18333728018133139138
1813 80 18341628034822010892
18186145 218 14346084147718492820
19107657 9 8718828669556021134
19784866 240 18409171038764510007
200 152 18186520994917469234
20112054 13 11095888180624394320
20281475 54 18410579504337777592
20291156 8 18413106177668208174
20361792 2 18412260666169678101
20621476 91 18268404963481510690
20645477 70 18042680778995270753
20671657 53 18338519750242471157
20871998 22 18339636858045635177
20871999 31 16298098779080061639
22485316 2 18410577292324008224
22646028 28 18410012122178384994
231179 274 10952054450867625746
23402539 116 18334294232598984168
23402655 69 12540687128799583678
23403322 49 18333447625424766578
23500284 214 10664100055986497420
23559900 14 18334285466687427196
270888 7 9295297131178768966
27216 239 11167930385994954469
351380 3 18413109472151204710
4028521 119 12396299270287666198
4072396 5 16916521349750896015
465052 167 18269282433821692687
4921388 177 15791742892432203537
5104073 3 17845384413171946851
5262128 65 15864366743532624750
76465 3 18411136956585074674
7970288 3 18411699893886677102
83771 10 18411139155655971892
85463 6 18059846255801786862

> <PUBCHEM_SHAPE_MULTIPOLES>
308.69
9.72
2.25
1.12
7.06
0.89
-0.04
-7.88
0.41
-0.41
0.19
-0.67
-0.05
-0.63

> <PUBCHEM_SHAPE_SELFOVERLAP>
603.103

> <PUBCHEM_SHAPE_VOLUME>
185.7

> <PUBCHEM_COORDINATE_TYPE>
2
5
10

$$$$
