68133
  -OEChem-11232108483D

 29 28  0     1  0  0  0  0  0999 V2000
    3.0217   -1.4093   -0.6826 O   0  0  0  0  0  0  0  0  0  0  0  0
    0.8929   -0.4515   -0.0311 C   0  0  2  0  0  0  0  0  0  0  0  0
   -0.2511   -0.5816    1.0008 C   0  0  0  0  0  0  0  0  0  0  0  0
    2.0129   -1.4453    0.3196 C   0  0  0  0  0  0  0  0  0  0  0  0
    1.4130    0.9795   -0.1609 C   0  0  0  0  0  0  0  0  0  0  0  0
   -1.4373    0.2826    0.6638 C   0  0  0  0  0  0  0  0  0  0  0  0
   -2.5567   -0.0562   -0.0036 C   0  0  0  0  0  0  0  0  0  0  0  0
    2.0111    1.6459    1.0475 C   0  0  0  0  0  0  0  0  0  0  0  0
    1.3386    1.6347   -1.3316 C   0  0  0  0  0  0  0  0  0  0  0  0
   -3.7064    0.8621   -0.3057 C   0  0  0  0  0  0  0  0  0  0  0  0
   -2.7387   -1.4608   -0.5161 C   0  0  0  0  0  0  0  0  0  0  0  0
    0.4943   -0.7587   -1.0094 H   0  0  0  0  0  0  0  0  0  0  0  0
   -0.5493   -1.6314    1.0984 H   0  0  0  0  0  0  0  0  0  0  0  0
    0.1013   -0.3019    2.0021 H   0  0  0  0  0  0  0  0  0  0  0  0
    1.6261   -2.4690    0.3708 H   0  0  0  0  0  0  0  0  0  0  0  0
    2.4777   -1.2179    1.2841 H   0  0  0  0  0  0  0  0  0  0  0  0
   -1.3589    1.3128    1.0098 H   0  0  0  0  0  0  0  0  0  0  0  0
    2.3510    2.6638    0.8268 H   0  0  0  0  0  0  0  0  0  0  0  0
    2.8792    1.0876    1.4098 H   0  0  0  0  0  0  0  0  0  0  0  0
    1.2787    1.7191    1.8566 H   0  0  0  0  0  0  0  0  0  0  0  0
    0.9103    1.1710   -2.2140 H   0  0  0  0  0  0  0  0  0  0  0  0
    1.7039    2.6509   -1.4361 H   0  0  0  0  0  0  0  0  0  0  0  0
   -4.6309    0.4738    0.1334 H   0  0  0  0  0  0  0  0  0  0  0  0
   -3.8449    0.9598   -1.3871 H   0  0  0  0  0  0  0  0  0  0  0  0
   -3.5374    1.8643    0.1018 H   0  0  0  0  0  0  0  0  0  0  0  0
   -3.0900   -1.4354   -1.5540 H   0  0  0  0  0  0  0  0  0  0  0  0
   -1.8267   -2.0616   -0.5210 H   0  0  0  0  0  0  0  0  0  0  0  0
   -3.4908   -1.9837    0.0837 H   0  0  0  0  0  0  0  0  0  0  0  0
    2.6035   -1.6454   -1.5282 H   0  0  0  0  0  0  0  0  0  0  0  0
  1  4  1  0  0  0  0
  1 29  1  0  0  0  0
  2  3  1  0  0  0  0
  2  4  1  0  0  0  0
  2  5  1  0  0  0  0
  2 12  1  0  0  0  0
  3  6  1  0  0  0  0
  3 13  1  0  0  0  0
  3 14  1  0  0  0  0
  4 15  1  0  0  0  0
  4 16  1  0  0  0  0
  5  8  1  0  0  0  0
  5  9  2  0  0  0  0
  6  7  2  0  0  0  0
  6 17  1  0  0  0  0
  7 10  1  0  0  0  0
  7 11  1  0  0  0  0
  8 18  1  0  0  0  0
  8 19  1  0  0  0  0
  8 20  1  0  0  0  0
  9 21  1  0  0  0  0
  9 22  1  0  0  0  0
 10 23  1  0  0  0  0
 10 24  1  0  0  0  0
 10 25  1  0  0  0  0
 11 26  1  0  0  0  0
 11 27  1  0  0  0  0
 11 28  1  0  0  0  0
M  END
> <PUBCHEM_COMPOUND_CID>
68133

> <PUBCHEM_CONFORMER_RMSD>
0.6

> <PUBCHEM_CONFORMER_DIVERSEORDER>
1
35
12
39
21
5
16
26
18
20
22
25
4
33
37
27
31
13
6
17
2
38
29
14
36
8
10
32
28
30
3
24
7
11
19
9
23
15
34

> <PUBCHEM_MMFF94_PARTIAL_CHARGES>
15
1 -0.68
10 0.14
11 0.14
17 0.15
2 0.14
21 0.15
22 0.15
29 0.4
3 0.14
4 0.28
5 -0.28
6 -0.29
7 -0.28
8 0.14
9 -0.3

> <PUBCHEM_EFFECTIVE_ROTOR_COUNT>
4

> <PUBCHEM_PHARMACOPHORE_FEATURES>
4
1 1 acceptor
1 1 donor
3 7 10 11 hydrophobe
4 2 3 5 6 hydrophobe

> <PUBCHEM_HEAVY_ATOM_COUNT>
11

> <PUBCHEM_ATOM_DEF_STEREO_COUNT>
1

> <PUBCHEM_ATOM_UDEF_STEREO_COUNT>
0

> <PUBCHEM_BOND_DEF_STEREO_COUNT>
0

> <PUBCHEM_BOND_UDEF_STEREO_COUNT>
0

> <PUBCHEM_ISOTOPIC_ATOM_COUNT>
0

> <PUBCHEM_COMPONENT_COUNT>
1

> <PUBCHEM_CACTVS_TAUTO_COUNT>
1

> <PUBCHEM_CONFORMER_ID>
00010A2500000001

> <PUBCHEM_MMFF94_ENERGY>
14.0988

> <PUBCHEM_FEATURE_SELFOVERLAP>
20.297

> <PUBCHEM_SHAPE_FINGERPRINT>
12897270 3 18129664235091010209
12932764 1 18129392642902483001
14128692 85 18272375252139128458
14648413 74 17677632997283684988
14993402 34 18129951087456647918
15310529 11 18129658729085348543
15775835 57 18342461490637621037
18186145 218 18186514393927275155
18410436 195 18200027322854728856
19973954 147 18114187475090319309
20653085 51 18114187428024988297
230 275 17894904165817653417
23552423 10 18335699468478398683
3248919 1 17968934322612954307
5084963 1 18334861627516522353
7364860 26 18202280329385302194
93112 12 18411978044789873887
9939556 21 18411418401971819951

> <PUBCHEM_SHAPE_MULTIPOLES>
220.51
5.19
1.85
1.09
3.63
0
0.02
-0.18
0.79
-1.04
0.25
-0.41
0.28
0.07

> <PUBCHEM_SHAPE_SELFOVERLAP>
409.308

> <PUBCHEM_SHAPE_VOLUME>
139.6

> <PUBCHEM_COORDINATE_TYPE>
2
5
10

$$$$
