68346
  -OEChem-11232109173D

 27 26  0     0  0  0  0  0  0999 V2000
   -0.3089    1.7086    0.7012 O   0  0  0  0  0  0  0  0  0  0  0  0
    1.4764    0.3064   -0.1842 C   0  0  0  0  0  0  0  0  0  0  0  0
    2.4259    1.4865    0.0844 C   0  0  0  0  0  0  0  0  0  0  0  0
    1.4579    0.0032   -1.6915 C   0  0  0  0  0  0  0  0  0  0  0  0
    0.0267    0.6117    0.2519 C   0  0  0  0  0  0  0  0  0  0  0  0
    1.9452   -0.8534    0.6821 C   0  0  0  0  0  0  0  0  0  0  0  0
   -0.9648   -0.5027    0.2151 C   0  0  0  0  0  0  0  0  0  0  0  0
   -2.2768   -0.3304   -0.0222 C   0  0  0  0  0  0  0  0  0  0  0  0
    2.3543   -2.0626    0.2772 C   0  0  0  0  0  0  0  0  0  0  0  0
   -3.3101   -1.4215   -0.0687 C   0  0  0  0  0  0  0  0  0  0  0  0
   -2.8258    1.0540   -0.2453 C   0  0  0  0  0  0  0  0  0  0  0  0
    2.1184    2.3724   -0.4836 H   0  0  0  0  0  0  0  0  0  0  0  0
    2.4270    1.7708    1.1436 H   0  0  0  0  0  0  0  0  0  0  0  0
    3.4567    1.2464   -0.2013 H   0  0  0  0  0  0  0  0  0  0  0  0
    0.8292   -0.8603   -1.9370 H   0  0  0  0  0  0  0  0  0  0  0  0
    1.0566    0.8561   -2.2522 H   0  0  0  0  0  0  0  0  0  0  0  0
    2.4660   -0.1968   -2.0729 H   0  0  0  0  0  0  0  0  0  0  0  0
    1.9490   -0.6718    1.7571 H   0  0  0  0  0  0  0  0  0  0  0  0
   -0.5879   -1.5125    0.3355 H   0  0  0  0  0  0  0  0  0  0  0  0
    2.6654   -2.8030    1.0069 H   0  0  0  0  0  0  0  0  0  0  0  0
    2.3922   -2.3463   -0.7673 H   0  0  0  0  0  0  0  0  0  0  0  0
   -2.8661   -2.4015    0.1345 H   0  0  0  0  0  0  0  0  0  0  0  0
   -3.7777   -1.4644   -1.0575 H   0  0  0  0  0  0  0  0  0  0  0  0
   -4.0870   -1.2437    0.6818 H   0  0  0  0  0  0  0  0  0  0  0  0
   -3.0099    1.5562    0.7098 H   0  0  0  0  0  0  0  0  0  0  0  0
   -2.1775    1.6710   -0.8754 H   0  0  0  0  0  0  0  0  0  0  0  0
   -3.7837    1.0036   -0.7766 H   0  0  0  0  0  0  0  0  0  0  0  0
  1  5  2  0  0  0  0
  2  3  1  0  0  0  0
  2  4  1  0  0  0  0
  2  5  1  0  0  0  0
  2  6  1  0  0  0  0
  3 12  1  0  0  0  0
  3 13  1  0  0  0  0
  3 14  1  0  0  0  0
  4 15  1  0  0  0  0
  4 16  1  0  0  0  0
  4 17  1  0  0  0  0
  5  7  1  0  0  0  0
  6  9  2  0  0  0  0
  6 18  1  0  0  0  0
  7  8  2  0  0  0  0
  7 19  1  0  0  0  0
  8 10  1  0  0  0  0
  8 11  1  0  0  0  0
  9 20  1  0  0  0  0
  9 21  1  0  0  0  0
 10 22  1  0  0  0  0
 10 23  1  0  0  0  0
 10 24  1  0  0  0  0
 11 25  1  0  0  0  0
 11 26  1  0  0  0  0
 11 27  1  0  0  0  0
M  END
> <PUBCHEM_COMPOUND_CID>
68346

> <PUBCHEM_CONFORMER_RMSD>
0.6

> <PUBCHEM_CONFORMER_DIVERSEORDER>
7
15
2
20
8
21
18
4
23
14
3
13
6
12
5
10
22
1
17
24
19
9
11
16

> <PUBCHEM_MMFF94_PARTIAL_CHARGES>
13
1 -0.57
10 0.14
11 0.14
18 0.15
19 0.15
2 0.2
20 0.15
21 0.15
5 0.49
6 -0.29
7 -0.14
8 -0.28
9 -0.3

> <PUBCHEM_EFFECTIVE_ROTOR_COUNT>
3

> <PUBCHEM_PHARMACOPHORE_FEATURES>
4
1 1 acceptor
1 9 hydrophobe
3 2 3 4 hydrophobe
3 8 10 11 hydrophobe

> <PUBCHEM_HEAVY_ATOM_COUNT>
11

> <PUBCHEM_ATOM_DEF_STEREO_COUNT>
0

> <PUBCHEM_ATOM_UDEF_STEREO_COUNT>
0

> <PUBCHEM_BOND_DEF_STEREO_COUNT>
0

> <PUBCHEM_BOND_UDEF_STEREO_COUNT>
0

> <PUBCHEM_ISOTOPIC_ATOM_COUNT>
0

> <PUBCHEM_COMPONENT_COUNT>
1

> <PUBCHEM_CACTVS_TAUTO_COUNT>
3

> <PUBCHEM_CONFORMER_ID>
00010AFA00000007

> <PUBCHEM_MMFF94_ENERGY>
28.098

> <PUBCHEM_FEATURE_SELFOVERLAP>
20.3

> <PUBCHEM_SHAPE_FINGERPRINT>
10130415 120 18269834229412230225
10922523 26 17895189935903896637
11769659 78 18261384507974681987
12932764 1 18337685164966103453
13571099 22 18337382730374934575
14128692 85 18261112915870563698
14252887 29 17773053053296672971
14325111 11 18408319999626699657
15310529 11 18410571829452421583
16945 1 18043261329814244389
18511873 20 18117837694738443835
20201158 50 18263078967236164987
20645477 70 18412538821601042183
20653085 51 16950854583216381677
20653091 64 18411422778495885552
20711985 344 17771369494472146825
23552333 60 18273220806724559984
23552423 10 18260267421477666435
29004967 10 17489874855548636465
3248919 1 17167866404323516913
5084963 1 17676768699639971303
7364860 26 18412543206651296682
8030462 33 18260556644701895167

> <PUBCHEM_SHAPE_MULTIPOLES>
220.51
4.77
1.84
0.98
2.96
0.3
-0.39
1.15
-0.15
-0.58
0.29
-0.45
-0.05
-0.18

> <PUBCHEM_SHAPE_SELFOVERLAP>
421.654

> <PUBCHEM_SHAPE_VOLUME>
136.7

> <PUBCHEM_COORDINATE_TYPE>
2
5
10

$$$$
