6835
  -OEChem-11232109253D

 26 27  0     0  0  0  0  0  0999 V2000
    0.8208   -1.8874    0.6221 O   0  0  0  0  0  0  0  0  0  0  0  0
    0.6065    0.4212   -0.0136 C   0  0  0  0  0  0  0  0  0  0  0  0
   -0.8381    0.3386   -0.0088 C   0  0  0  0  0  0  0  0  0  0  0  0
    1.3902   -0.6906    0.3007 C   0  0  0  0  0  0  0  0  0  0  0  0
    1.2185    1.6330   -0.3386 C   0  0  0  0  0  0  0  0  0  0  0  0
   -1.5199   -0.0208   -1.1714 C   0  0  0  0  0  0  0  0  0  0  0  0
   -1.5490    0.6179    1.1585 C   0  0  0  0  0  0  0  0  0  0  0  0
    2.7815   -0.5905    0.2899 C   0  0  0  0  0  0  0  0  0  0  0  0
    2.6098    1.7329   -0.3492 C   0  0  0  0  0  0  0  0  0  0  0  0
    3.3913    0.6212   -0.0349 C   0  0  0  0  0  0  0  0  0  0  0  0
   -2.9124   -0.1009   -1.1669 C   0  0  0  0  0  0  0  0  0  0  0  0
   -2.9416    0.5378    1.1629 C   0  0  0  0  0  0  0  0  0  0  0  0
   -3.6233    0.1784    0.0002 C   0  0  0  0  0  0  0  0  0  0  0  0
    0.5657   -2.7908   -0.4508 C   0  0  0  0  0  0  0  0  0  0  0  0
    0.6257    2.5105   -0.5865 H   0  0  0  0  0  0  0  0  0  0  0  0
   -0.9825   -0.2377   -2.0915 H   0  0  0  0  0  0  0  0  0  0  0  0
   -1.0332    0.8991    2.0737 H   0  0  0  0  0  0  0  0  0  0  0  0
    3.3971   -1.4521    0.5341 H   0  0  0  0  0  0  0  0  0  0  0  0
    3.0847    2.6763   -0.6022 H   0  0  0  0  0  0  0  0  0  0  0  0
    4.4745    0.6990   -0.0432 H   0  0  0  0  0  0  0  0  0  0  0  0
   -3.4433   -0.3797   -2.0724 H   0  0  0  0  0  0  0  0  0  0  0  0
   -3.4953    0.7551    2.0716 H   0  0  0  0  0  0  0  0  0  0  0  0
   -4.7075    0.1162    0.0036 H   0  0  0  0  0  0  0  0  0  0  0  0
   -0.3280   -3.3719   -0.2074 H   0  0  0  0  0  0  0  0  0  0  0  0
    1.4132   -3.4756   -0.5498 H   0  0  0  0  0  0  0  0  0  0  0  0
    0.4049   -2.2766   -1.4036 H   0  0  0  0  0  0  0  0  0  0  0  0
  1  4  1  0  0  0  0
  1 14  1  0  0  0  0
  2  3  1  0  0  0  0
  2  4  1  0  0  0  0
  2  5  2  0  0  0  0
  3  6  2  0  0  0  0
  3  7  1  0  0  0  0
  4  8  2  0  0  0  0
  5  9  1  0  0  0  0
  5 15  1  0  0  0  0
  6 11  1  0  0  0  0
  6 16  1  0  0  0  0
  7 12  2  0  0  0  0
  7 17  1  0  0  0  0
  8 10  1  0  0  0  0
  8 18  1  0  0  0  0
  9 10  2  0  0  0  0
  9 19  1  0  0  0  0
 10 20  1  0  0  0  0
 11 13  2  0  0  0  0
 11 21  1  0  0  0  0
 12 13  1  0  0  0  0
 12 22  1  0  0  0  0
 13 23  1  0  0  0  0
 14 24  1  0  0  0  0
 14 25  1  0  0  0  0
 14 26  1  0  0  0  0
M  END
> <PUBCHEM_COMPOUND_CID>
6835

> <PUBCHEM_CONFORMER_RMSD>
0.6

> <PUBCHEM_CONFORMER_DIVERSEORDER>
1
2

> <PUBCHEM_MMFF94_PARTIAL_CHARGES>
21
1 -0.36
10 -0.15
11 -0.15
12 -0.15
13 -0.15
14 0.28
15 0.15
16 0.15
17 0.15
18 0.15
19 0.15
20 0.15
21 0.15
22 0.15
23 0.15
4 0.08
5 -0.15
6 -0.15
7 -0.15
8 -0.15
9 -0.15

> <PUBCHEM_EFFECTIVE_ROTOR_COUNT>
2

> <PUBCHEM_PHARMACOPHORE_FEATURES>
3
1 1 acceptor
6 2 4 5 8 9 10 rings
6 3 6 7 11 12 13 rings

> <PUBCHEM_HEAVY_ATOM_COUNT>
14

> <PUBCHEM_ATOM_DEF_STEREO_COUNT>
0

> <PUBCHEM_ATOM_UDEF_STEREO_COUNT>
0

> <PUBCHEM_BOND_DEF_STEREO_COUNT>
0

> <PUBCHEM_BOND_UDEF_STEREO_COUNT>
0

> <PUBCHEM_ISOTOPIC_ATOM_COUNT>
0

> <PUBCHEM_COMPONENT_COUNT>
1

> <PUBCHEM_CACTVS_TAUTO_COUNT>
1

> <PUBCHEM_CONFORMER_ID>
00001AB300000001

> <PUBCHEM_MMFF94_ENERGY>
55.5623

> <PUBCHEM_FEATURE_SELFOVERLAP>
15.223

> <PUBCHEM_SHAPE_FINGERPRINT>
1 1 18334292076335666558
10219947 1 18333731312446758748
107287 299 18041008327309463598
11471102 20 18334289851310583117
12236239 1 18060419118555759277
12326174 3 18115020797297986802
12423570 1 9825436678500834604
13538477 17 17775277279488526093
14251717 144 18409725153664124783
14993402 34 18411138052265932996
15219456 202 17603583023804471525
15279307 12 18131068225561732351
15309172 13 18335142024398458352
15775835 57 18335420218046587340
16752209 62 17131534095335930821
16945 1 18260828172507896538
18175812 5 17313105280081631365
18186145 218 18341334474044621316
19049666 15 17242160254630664973
19422 9 17989208139854754823
200 152 18412254052405053061
201361 129 18200324212142049801
20201158 50 17894629219169925833
20279233 1 17240199932835741929
204376 136 18262237854084605088
20645477 70 18263071154991366479
21639500 275 18336256942010972444
21730867 7 18187365423862954692
22445834 79 18129664089056795491
22802520 49 12966864389624128843
23236772 104 17989205958195919785
23402539 116 18059853974391137884
23419403 2 13708069388817990988
23557571 272 16371012871491340727
23559900 14 15791723067237691914
2748010 2 18191035692782569666
3060560 45 18409163311996895582
474 4 17913759785412768160
528862 383 18338233765238895811
528886 8 18409444812680145136
53748568 43 18131633378806593341
63268167 104 18411132550096451912
7364860 26 18128261094771008126
77492 1 18060418014770224237
81228 2 17397825060694846138
8272917 22 18268153067875611863

> <PUBCHEM_SHAPE_MULTIPOLES>
282.24
5.44
1.94
1.07
1.33
1.39
-0.01
-1.44
0
-1.33
-0.14
0.77
-0.05
-0.53

> <PUBCHEM_SHAPE_SELFOVERLAP>
609.667

> <PUBCHEM_SHAPE_VOLUME>
155.8

> <PUBCHEM_COORDINATE_TYPE>
2
5
10

$$$$
