68470
  -OEChem-11232108583D

 21 22  0     0  0  0  0  0  0999 V2000
    2.1916    1.6703    0.5067 O   0  0  0  0  0  0  0  0  0  0  0  0
    1.0840   -0.2731    0.0541 N   0  0  0  0  0  0  0  0  0  0  0  0
   -0.2461    0.1634   -0.0040 C   0  0  0  0  0  0  0  0  0  0  0  0
   -1.0704   -0.9698    0.0388 C   0  0  0  0  0  0  0  0  0  0  0  0
   -0.2279   -2.1017    0.1228 C   0  0  0  0  0  0  0  0  0  0  0  0
    1.0695   -1.6543    0.1299 C   0  0  0  0  0  0  0  0  0  0  0  0
   -0.8055    1.4532   -0.0904 C   0  0  0  0  0  0  0  0  0  0  0  0
   -2.4718   -0.8134   -0.0046 C   0  0  0  0  0  0  0  0  0  0  0  0
    2.2339    0.5413    0.0394 C   0  0  0  0  0  0  0  0  0  0  0  0
   -2.1976    1.5837   -0.1324 C   0  0  0  0  0  0  0  0  0  0  0  0
   -3.0218    0.4668   -0.0900 C   0  0  0  0  0  0  0  0  0  0  0  0
    3.4621   -0.0665   -0.5703 C   0  0  0  0  0  0  0  0  0  0  0  0
   -0.5319   -3.1381    0.1753 H   0  0  0  0  0  0  0  0  0  0  0  0
    1.9923   -2.2148    0.1935 H   0  0  0  0  0  0  0  0  0  0  0  0
   -0.1812    2.3398   -0.1316 H   0  0  0  0  0  0  0  0  0  0  0  0
   -3.1250   -1.6811    0.0276 H   0  0  0  0  0  0  0  0  0  0  0  0
   -2.6384    2.5749   -0.2008 H   0  0  0  0  0  0  0  0  0  0  0  0
   -4.1010    0.5882   -0.1240 H   0  0  0  0  0  0  0  0  0  0  0  0
    3.9160   -0.7772    0.1249 H   0  0  0  0  0  0  0  0  0  0  0  0
    4.1863    0.7271   -0.7786 H   0  0  0  0  0  0  0  0  0  0  0  0
    3.2221   -0.5577   -1.5174 H   0  0  0  0  0  0  0  0  0  0  0  0
  1  9  2  0  0  0  0
  2  3  1  0  0  0  0
  2  6  1  0  0  0  0
  2  9  1  0  0  0  0
  3  4  1  0  0  0  0
  3  7  2  0  0  0  0
  4  5  1  0  0  0  0
  4  8  2  0  0  0  0
  5  6  2  0  0  0  0
  5 13  1  0  0  0  0
  6 14  1  0  0  0  0
  7 10  1  0  0  0  0
  7 15  1  0  0  0  0
  8 11  1  0  0  0  0
  8 16  1  0  0  0  0
  9 12  1  0  0  0  0
 10 11  2  0  0  0  0
 10 17  1  0  0  0  0
 11 18  1  0  0  0  0
 12 19  1  0  0  0  0
 12 20  1  0  0  0  0
 12 21  1  0  0  0  0
M  END
> <PUBCHEM_COMPOUND_CID>
68470

> <PUBCHEM_CONFORMER_RMSD>
0.4

> <PUBCHEM_CONFORMER_DIVERSEORDER>
1
4
6
5
3
2

> <PUBCHEM_MMFF94_PARTIAL_CHARGES>
17
1 -0.57
10 -0.15
11 -0.15
12 0.06
13 0.15
14 0.15
15 0.15
16 0.15
17 0.15
18 0.15
2 0.29
3 -0.15
5 -0.15
6 -0.3
7 -0.15
8 -0.15
9 0.52

> <PUBCHEM_EFFECTIVE_ROTOR_COUNT>
1

> <PUBCHEM_PHARMACOPHORE_FEATURES>
3
1 1 acceptor
5 2 3 4 5 6 rings
6 3 4 7 8 10 11 rings

> <PUBCHEM_HEAVY_ATOM_COUNT>
12

> <PUBCHEM_ATOM_DEF_STEREO_COUNT>
0

> <PUBCHEM_ATOM_UDEF_STEREO_COUNT>
0

> <PUBCHEM_BOND_DEF_STEREO_COUNT>
0

> <PUBCHEM_BOND_UDEF_STEREO_COUNT>
0

> <PUBCHEM_ISOTOPIC_ATOM_COUNT>
0

> <PUBCHEM_COMPONENT_COUNT>
1

> <PUBCHEM_CACTVS_TAUTO_COUNT>
1

> <PUBCHEM_CONFORMER_ID>
00010B7600000001

> <PUBCHEM_MMFF94_ENERGY>
30.1839

> <PUBCHEM_FEATURE_SELFOVERLAP>
15.311

> <PUBCHEM_SHAPE_FINGERPRINT>
11206711 2 18410009935765588749
12897270 3 18411134723365624093
13380535 21 18266471914169571827
13380535 76 18337106774320754219
14325111 11 18410573989641733692
15775835 57 18336834091115497364
16945 1 18411694379052794547
193761 8 17761492495636053517
19973954 147 18194681467139601129
20871998 184 18054797444404733839
21028194 46 18407761430228742380
21040471 1 18409165528010148218
21501502 16 18265330599646215867
22802520 49 18271258212886941670
23402539 116 18341883134425369846
23402655 69 18267850698173592285
23463225 33 18189048707920571170
23552423 10 18119245069627603067
23559900 14 18343027688588365412
241688 4 16394367288417720603
2748010 2 17978227489037423023
5084963 1 18202566197992282840
528886 8 18410288103744049243
53812653 166 18412544280071529776
57177213 63 18114751434113174422
63268167 104 18267307525626313561
6333449 129 18411698820064672983
7364860 26 18124875659767180238
81228 2 17905603655001249315

> <PUBCHEM_SHAPE_MULTIPOLES>
236.1
4.47
1.99
0.65
1.34
0.32
0.02
-1.24
0.48
-0.14
-0.14
0.1
-0.02
0.16

> <PUBCHEM_SHAPE_SELFOVERLAP>
513.743

> <PUBCHEM_SHAPE_VOLUME>
131

> <PUBCHEM_COORDINATE_TYPE>
2
5
10

$$$$
