6887
  -OEChem-11232108553D

 39 40  0     1  0  0  0  0  0999 V2000
    2.2132    0.7687   -0.2784 C   0  0  0  0  0  0  0  0  0  0  0  0
    0.6838    0.5631   -0.0975 C   0  0  1  0  0  0  0  0  0  0  0  0
    1.0304   -0.8616    0.4401 C   0  0  2  0  0  0  0  0  0  0  0  0
    2.3307   -0.7613   -0.4065 C   0  0  0  0  0  0  0  0  0  0  0  0
    0.0318    1.5522    0.8671 C   0  0  0  0  0  0  0  0  0  0  0  0
    2.7138    1.4927   -1.5129 C   0  0  0  0  0  0  0  0  0  0  0  0
    2.8978    1.3232    0.9516 C   0  0  0  0  0  0  0  0  0  0  0  0
    0.1626   -2.0314    0.1046 C   0  0  0  0  0  0  0  0  0  0  0  0
   -1.3943    1.1374    1.2395 C   0  0  0  0  0  0  0  0  0  0  0  0
   -1.0017   -1.9276   -0.8500 C   0  0  0  0  0  0  0  0  0  0  0  0
   -2.3292    1.0779    0.0537 C   0  0  0  0  0  0  0  0  0  0  0  0
   -2.2992   -1.4636   -0.1741 C   0  0  0  0  0  0  0  0  0  0  0  0
    0.4948   -3.2092    0.6609 C   0  0  0  0  0  0  0  0  0  0  0  0
   -2.7001   -0.0657   -0.5525 C   0  0  0  0  0  0  0  0  0  0  0  0
   -2.8343    2.4052   -0.4456 C   0  0  0  0  0  0  0  0  0  0  0  0
    0.1794    0.5736   -1.0729 H   0  0  0  0  0  0  0  0  0  0  0  0
    1.2284   -0.8481    1.5229 H   0  0  0  0  0  0  0  0  0  0  0  0
    3.2191   -1.2170    0.0423 H   0  0  0  0  0  0  0  0  0  0  0  0
    2.2331   -1.1420   -1.4318 H   0  0  0  0  0  0  0  0  0  0  0  0
    0.0322    2.5548    0.4231 H   0  0  0  0  0  0  0  0  0  0  0  0
    0.5790    1.6263    1.8121 H   0  0  0  0  0  0  0  0  0  0  0  0
    3.7971    1.3802   -1.6319 H   0  0  0  0  0  0  0  0  0  0  0  0
    2.2403    1.1083   -2.4233 H   0  0  0  0  0  0  0  0  0  0  0  0
    2.4884    2.5634   -1.4580 H   0  0  0  0  0  0  0  0  0  0  0  0
    3.9876    1.2445    0.8515 H   0  0  0  0  0  0  0  0  0  0  0  0
    2.6742    2.3868    1.0935 H   0  0  0  0  0  0  0  0  0  0  0  0
    2.6451    0.7974    1.8780 H   0  0  0  0  0  0  0  0  0  0  0  0
   -1.7963    1.8538    1.9676 H   0  0  0  0  0  0  0  0  0  0  0  0
   -1.3636    0.1810    1.7712 H   0  0  0  0  0  0  0  0  0  0  0  0
   -0.7392   -1.3096   -1.7159 H   0  0  0  0  0  0  0  0  0  0  0  0
   -1.1896   -2.9245   -1.2741 H   0  0  0  0  0  0  0  0  0  0  0  0
   -2.2638   -1.5894    0.9138 H   0  0  0  0  0  0  0  0  0  0  0  0
   -3.1146   -2.1218   -0.5039 H   0  0  0  0  0  0  0  0  0  0  0  0
    1.3408   -3.3034    1.3342 H   0  0  0  0  0  0  0  0  0  0  0  0
   -0.0755   -4.1095    0.4566 H   0  0  0  0  0  0  0  0  0  0  0  0
   -3.3607   -0.0020   -1.4159 H   0  0  0  0  0  0  0  0  0  0  0  0
   -2.0035    3.0297   -0.7881 H   0  0  0  0  0  0  0  0  0  0  0  0
   -3.3620    2.9351    0.3541 H   0  0  0  0  0  0  0  0  0  0  0  0
   -3.5314    2.2959   -1.2833 H   0  0  0  0  0  0  0  0  0  0  0  0
  1  2  1  0  0  0  0
  1  4  1  0  0  0  0
  1  6  1  0  0  0  0
  1  7  1  0  0  0  0
  2  3  1  0  0  0  0
  2  5  1  0  0  0  0
  2 16  1  0  0  0  0
  3  4  1  0  0  0  0
  3  8  1  0  0  0  0
  3 17  1  0  0  0  0
  4 18  1  0  0  0  0
  4 19  1  0  0  0  0
  5  9  1  0  0  0  0
  5 20  1  0  0  0  0
  5 21  1  0  0  0  0
  6 22  1  0  0  0  0
  6 23  1  0  0  0  0
  6 24  1  0  0  0  0
  7 25  1  0  0  0  0
  7 26  1  0  0  0  0
  7 27  1  0  0  0  0
  8 10  1  0  0  0  0
  8 13  2  0  0  0  0
  9 11  1  0  0  0  0
  9 28  1  0  0  0  0
  9 29  1  0  0  0  0
 10 12  1  0  0  0  0
 10 30  1  0  0  0  0
 10 31  1  0  0  0  0
 11 14  2  3  0  0  0
 11 15  1  0  0  0  0
 12 14  1  0  0  0  0
 12 32  1  0  0  0  0
 12 33  1  0  0  0  0
 13 34  1  0  0  0  0
 13 35  1  0  0  0  0
 14 36  1  0  0  0  0
 15 37  1  0  0  0  0
 15 38  1  0  0  0  0
 15 39  1  0  0  0  0
M  END
> <PUBCHEM_COMPOUND_CID>
6887

> <PUBCHEM_CONFORMER_RMSD>
0.6

> <PUBCHEM_CONFORMER_DIVERSEORDER>
3
2
1
4

> <PUBCHEM_MMFF94_PARTIAL_CHARGES>
12
10 0.14
11 -0.28
12 0.14
13 -0.3
14 -0.29
15 0.14
3 0.12
34 0.15
35 0.15
36 0.15
8 -0.25
9 0.14

> <PUBCHEM_EFFECTIVE_ROTOR_COUNT>
1.2

> <PUBCHEM_PHARMACOPHORE_FEATURES>
2
3 1 6 7 hydrophobe
4 1 2 3 4 rings

> <PUBCHEM_HEAVY_ATOM_COUNT>
15

> <PUBCHEM_ATOM_DEF_STEREO_COUNT>
2

> <PUBCHEM_ATOM_UDEF_STEREO_COUNT>
0

> <PUBCHEM_BOND_DEF_STEREO_COUNT>
0

> <PUBCHEM_BOND_UDEF_STEREO_COUNT>
1

> <PUBCHEM_ISOTOPIC_ATOM_COUNT>
0

> <PUBCHEM_COMPONENT_COUNT>
1

> <PUBCHEM_CACTVS_TAUTO_COUNT>
1

> <PUBCHEM_CONFORMER_ID>
00001AE700000003

> <PUBCHEM_MMFF94_ENERGY>
35.7933

> <PUBCHEM_FEATURE_SELFOVERLAP>
10.148

> <PUBCHEM_SHAPE_FINGERPRINT>
1 1 18265053531084352892
11206711 2 18269839881394038869
12423570 1 15532773119151085010
13140716 1 18340207392799934202
14181834 199 17979057298304577887
14251711 518 18272078392711038871
14614273 12 18336254704659799029
14817 1 15392041445986173951
15279307 12 18269847423514814089
15775835 57 18411427193469317965
16945 1 18121500425499869758
18186145 218 18202009810849558208
20510252 161 18197216055884015290
20511035 2 18054208956844724099
20645476 183 18115314495798977646
21130352 189 17397823484452443279
21524375 3 18412548699587764959
22344851 341 18412256208046313978
22802520 49 17845112777516885366
2334 1 18412547634372286170
23402539 116 17910939563529882318
23559900 14 18131073706730811900
241688 4 17764861790432747915
2748010 2 18341619208632178786
2897 32 18339358569934144863
305870 269 18335411340496963882
353137 74 18340203102206778331
53812653 8 18190748724379085678
63268167 104 18049726213372600435
7364860 26 18054219934564621122
81228 2 17980771750311938466
8809292 202 18125157397037082682

> <PUBCHEM_SHAPE_MULTIPOLES>
308.69
4.41
3.09
1.13
0.11
1.74
-0.04
-2.5
-0.85
0.6
0.2
-0.37
-0.33
-0.34

> <PUBCHEM_SHAPE_SELFOVERLAP>
626.522

> <PUBCHEM_SHAPE_VOLUME>
181.4

> <PUBCHEM_COORDINATE_TYPE>
2
5
10

$$$$
