68968644
  -OEChem-11232109143D

 36 36  0     0  0  0  0  0  0999 V2000
    0.7371    0.9287   -0.6484 O   0  0  0  0  0  0  0  0  0  0  0  0
   -3.5040   -0.8874   -0.1537 O   0  0  0  0  0  0  0  0  0  0  0  0
    0.4367    3.0173    0.2828 O   0  0  0  0  0  0  0  0  0  0  0  0
    4.1521   -0.6001   -0.0652 C   0  0  0  0  0  0  0  0  0  0  0  0
    2.7082   -0.4286   -0.5642 C   0  0  0  0  0  0  0  0  0  0  0  0
    2.0686    0.8913   -0.1503 C   0  0  0  0  0  0  0  0  0  0  0  0
   -2.4543    1.9195    0.1656 C   0  0  0  0  0  0  0  0  0  0  0  0
    4.1836   -0.5453    1.4639 C   0  0  0  0  0  0  0  0  0  0  0  0
    4.7841   -1.9062   -0.5485 C   0  0  0  0  0  0  0  0  0  0  0  0
   -1.3754    1.9465   -0.9192 C   0  0  0  0  0  0  0  0  0  0  0  0
   -2.3008    0.7668    1.1685 C   0  0  0  0  0  0  0  0  0  0  0  0
    0.0236    2.0597   -0.3580 C   0  0  0  0  0  0  0  0  0  0  0  0
   -2.3811   -0.6093    0.5595 C   0  0  0  0  0  0  0  0  0  0  0  0
   -1.5325   -1.6919    0.5662 C   0  0  0  0  0  0  0  0  0  0  0  0
   -2.1751   -2.6998   -0.1916 C   0  0  0  0  0  0  0  0  0  0  0  0
   -3.3708   -2.1613   -0.6073 C   0  0  0  0  0  0  0  0  0  0  0  0
    4.7590    0.2282   -0.4521 H   0  0  0  0  0  0  0  0  0  0  0  0
    2.0836   -1.2588   -0.2084 H   0  0  0  0  0  0  0  0  0  0  0  0
    2.6880   -0.5015   -1.6594 H   0  0  0  0  0  0  0  0  0  0  0  0
    2.6401    1.7312   -0.5621 H   0  0  0  0  0  0  0  0  0  0  0  0
    2.0258    0.9817    0.9394 H   0  0  0  0  0  0  0  0  0  0  0  0
   -2.4278    2.8643    0.7225 H   0  0  0  0  0  0  0  0  0  0  0  0
   -3.4375    1.8636   -0.3172 H   0  0  0  0  0  0  0  0  0  0  0  0
    5.1864   -0.7816    1.8373 H   0  0  0  0  0  0  0  0  0  0  0  0
    3.9385    0.4524    1.8396 H   0  0  0  0  0  0  0  0  0  0  0  0
    3.4852   -1.2643    1.9056 H   0  0  0  0  0  0  0  0  0  0  0  0
    4.7859   -1.9515   -1.6426 H   0  0  0  0  0  0  0  0  0  0  0  0
    5.8215   -1.9889   -0.2080 H   0  0  0  0  0  0  0  0  0  0  0  0
    4.2323   -2.7753   -0.1747 H   0  0  0  0  0  0  0  0  0  0  0  0
   -1.5308    2.8052   -1.5826 H   0  0  0  0  0  0  0  0  0  0  0  0
   -1.4488    1.0566   -1.5551 H   0  0  0  0  0  0  0  0  0  0  0  0
   -1.3536    0.8649    1.7120 H   0  0  0  0  0  0  0  0  0  0  0  0
   -3.0965    0.8486    1.9194 H   0  0  0  0  0  0  0  0  0  0  0  0
   -0.5698   -1.7487    1.0540 H   0  0  0  0  0  0  0  0  0  0  0  0
   -1.8120   -3.6940   -0.4083 H   0  0  0  0  0  0  0  0  0  0  0  0
   -4.1930   -2.5347   -1.2000 H   0  0  0  0  0  0  0  0  0  0  0  0
  1  6  1  0  0  0  0
  1 12  1  0  0  0  0
  2 13  1  0  0  0  0
  2 16  1  0  0  0  0
  3 12  2  0  0  0  0
  4  5  1  0  0  0  0
  4  8  1  0  0  0  0
  4  9  1  0  0  0  0
  4 17  1  0  0  0  0
  5  6  1  0  0  0  0
  5 18  1  0  0  0  0
  5 19  1  0  0  0  0
  6 20  1  0  0  0  0
  6 21  1  0  0  0  0
  7 10  1  0  0  0  0
  7 11  1  0  0  0  0
  7 22  1  0  0  0  0
  7 23  1  0  0  0  0
  8 24  1  0  0  0  0
  8 25  1  0  0  0  0
  8 26  1  0  0  0  0
  9 27  1  0  0  0  0
  9 28  1  0  0  0  0
  9 29  1  0  0  0  0
 10 12  1  0  0  0  0
 10 30  1  0  0  0  0
 10 31  1  0  0  0  0
 11 13  1  0  0  0  0
 11 32  1  0  0  0  0
 11 33  1  0  0  0  0
 13 14  2  0  0  0  0
 14 15  1  0  0  0  0
 14 34  1  0  0  0  0
 15 16  2  0  0  0  0
 15 35  1  0  0  0  0
 16 36  1  0  0  0  0
M  END
> <PUBCHEM_COMPOUND_CID>
68968644

> <PUBCHEM_CONFORMER_RMSD>
1.2

> <PUBCHEM_CONFORMER_DIVERSEORDER>
1
7
53
32
27
6
30
12
17
5
29
13
15
49
16
3
19
24
14
45
55
2
42
46
20
28
31
47
22
11
43
23
54
10
35
44
51
40
4
21
52
48
36
18
26
25
33
37
8
34
39
50
41
9
38

> <PUBCHEM_MMFF94_PARTIAL_CHARGES>
14
1 -0.43
10 0.06
11 0.18
12 0.66
13 -0.04
14 -0.15
15 -0.15
16 -0.01
2 -0.28
3 -0.57
34 0.15
35 0.15
36 0.15
6 0.28

> <PUBCHEM_EFFECTIVE_ROTOR_COUNT>
8

> <PUBCHEM_PHARMACOPHORE_FEATURES>
4
1 2 acceptor
1 3 acceptor
3 4 8 9 hydrophobe
5 2 13 14 15 16 rings

> <PUBCHEM_HEAVY_ATOM_COUNT>
16

> <PUBCHEM_ATOM_DEF_STEREO_COUNT>
0

> <PUBCHEM_ATOM_UDEF_STEREO_COUNT>
0

> <PUBCHEM_BOND_DEF_STEREO_COUNT>
0

> <PUBCHEM_BOND_UDEF_STEREO_COUNT>
0

> <PUBCHEM_ISOTOPIC_ATOM_COUNT>
0

> <PUBCHEM_COMPONENT_COUNT>
1

> <PUBCHEM_CACTVS_TAUTO_COUNT>
1

> <PUBCHEM_CONFORMER_ID>
041C60C400000001

> <PUBCHEM_MMFF94_ENERGY>
10.1292

> <PUBCHEM_FEATURE_SELFOVERLAP>
20.297

> <PUBCHEM_SHAPE_FINGERPRINT>
10366900 7 17702376257153488164
10968037 57 18342465832633454846
11552529 35 17846776334446735046
12346177 29 18410849924004988198
12553582 1 18336842977534734102
12633257 1 18059873743481822257
13083527 12 17980744245494602264
13931106 250 18189881063512625117
14081887 123 18268135488490112698
14251731 5 18411142463012800986
17834072 14 18339909528323084069
17977361 122 18333446525902784395
19777482 4 17843946264536390367
20291156 8 18336270149045788210
20304884 271 10915735945113942925
20442098 301 18262236600038362514
20621476 51 18338502067836259626
20621476 91 18265871697380912466
21634736 98 18114189669997936340
21650355 55 18340485573669168832
232386 152 18335995219741577284
23419403 2 17701229625270936897
23559900 14 18341887549842115248
23728640 28 18336834078552225737
24859131 72 18273216395656334806
257057 1 18196653123590575821
5902787 121 18410011031431083404
602551 16 18410853219015505322

> <PUBCHEM_SHAPE_MULTIPOLES>
311.66
8.25
3.27
1.03
9.75
0.41
0.23
-5.6
0.43
-2.24
-0.46
0.3
0.01
-0.12

> <PUBCHEM_SHAPE_SELFOVERLAP>
614.036

> <PUBCHEM_SHAPE_VOLUME>
187.7

> <PUBCHEM_COORDINATE_TYPE>
2
5
10

$$$$
