68960
  -OEChem-11232108433D

 16 15  0     0  0  0  0  0  0999 V2000
    3.4605    0.2678    0.2696 S   0  0  0  0  0  0  0  0  0  0  0  0
    0.8566   -0.4041   -0.3819 N   0  0  0  0  0  0  0  0  0  0  0  0
   -1.5728    0.0341   -0.2897 C   0  0  0  0  0  0  0  0  0  0  0  0
   -0.1719    0.5239    0.0946 C   0  0  0  0  0  0  0  0  0  0  0  0
   -1.8729   -1.3477    0.2929 C   0  0  0  0  0  0  0  0  0  0  0  0
   -2.6568    1.0345    0.1138 C   0  0  0  0  0  0  0  0  0  0  0  0
    1.9574   -0.1085   -0.0993 C   0  0  0  0  0  0  0  0  0  0  0  0
   -1.6069   -0.0624   -1.3833 H   0  0  0  0  0  0  0  0  0  0  0  0
   -0.0105    1.5186   -0.3439 H   0  0  0  0  0  0  0  0  0  0  0  0
   -0.1140    0.6330    1.1869 H   0  0  0  0  0  0  0  0  0  0  0  0
   -1.8209   -1.3341    1.3869 H   0  0  0  0  0  0  0  0  0  0  0  0
   -2.8769   -1.6793    0.0071 H   0  0  0  0  0  0  0  0  0  0  0  0
   -1.1644   -2.0984   -0.0717 H   0  0  0  0  0  0  0  0  0  0  0  0
   -2.6849    1.1692    1.2003 H   0  0  0  0  0  0  0  0  0  0  0  0
   -3.6448    0.6925   -0.2121 H   0  0  0  0  0  0  0  0  0  0  0  0
   -2.4728    2.0118   -0.3446 H   0  0  0  0  0  0  0  0  0  0  0  0
  1  7  2  0  0  0  0
  2  4  1  0  0  0  0
  2  7  2  0  0  0  0
  3  4  1  0  0  0  0
  3  5  1  0  0  0  0
  3  6  1  0  0  0  0
  3  8  1  0  0  0  0
  4  9  1  0  0  0  0
  4 10  1  0  0  0  0
  5 11  1  0  0  0  0
  5 12  1  0  0  0  0
  5 13  1  0  0  0  0
  6 14  1  0  0  0  0
  6 15  1  0  0  0  0
  6 16  1  0  0  0  0
M  END
> <PUBCHEM_COMPOUND_CID>
68960

> <PUBCHEM_CONFORMER_RMSD>
0.4

> <PUBCHEM_CONFORMER_DIVERSEORDER>
1
4
3
2

> <PUBCHEM_MMFF94_PARTIAL_CHARGES>
4
1 -0.27
2 -0.55
4 0.25
7 0.57

> <PUBCHEM_EFFECTIVE_ROTOR_COUNT>
2

> <PUBCHEM_PHARMACOPHORE_FEATURES>
3
1 1 acceptor
1 2 acceptor
3 3 5 6 hydrophobe

> <PUBCHEM_HEAVY_ATOM_COUNT>
7

> <PUBCHEM_ATOM_DEF_STEREO_COUNT>
0

> <PUBCHEM_ATOM_UDEF_STEREO_COUNT>
0

> <PUBCHEM_BOND_DEF_STEREO_COUNT>
0

> <PUBCHEM_BOND_UDEF_STEREO_COUNT>
0

> <PUBCHEM_ISOTOPIC_ATOM_COUNT>
0

> <PUBCHEM_COMPONENT_COUNT>
1

> <PUBCHEM_CACTVS_TAUTO_COUNT>
1

> <PUBCHEM_CONFORMER_ID>
00010D6000000001

> <PUBCHEM_MMFF94_ENERGY>
4.7659

> <PUBCHEM_FEATURE_SELFOVERLAP>
15.228

> <PUBCHEM_SHAPE_FINGERPRINT>
10857977 72 18341886454635406632
11062470 55 18131348592130697817
12932741 1 17988653981852284806
12932764 1 17168136837034320076
14325111 11 18411699898460173326
14390081 3 18060134323569341944
20645464 45 18272094872278708599
29004967 10 17918000485558819770
3248919 1 18409725171112921958
5460574 1 8214144057851941988

> <PUBCHEM_SHAPE_MULTIPOLES>
142.93
5.17
1.1
0.67
3.29
0.16
-0.02
-0.7
-0.52
-0.86
-0.1
0.04
0.01
0.1

> <PUBCHEM_SHAPE_SELFOVERLAP>
248.961

> <PUBCHEM_SHAPE_VOLUME>
95.8

> <PUBCHEM_COORDINATE_TYPE>
2
5
10

$$$$
