6914062
  -OEChem-11232109013D

 27 26  0     0  0  0  0  0  0999 V2000
   -1.9901    0.8324    0.7812 O   0  0  0  0  0  0  0  0  0  0  0  0
   -1.7759    0.0075   -1.3631 O   0  0  0  0  0  0  0  0  0  0  0  0
   -0.2669   -2.1974   -0.2882 C   0  0  0  0  0  0  0  0  0  0  0  0
    1.0537   -1.4711   -0.5752 C   0  0  0  0  0  0  0  0  0  0  0  0
   -1.2675   -1.3938    0.5436 C   0  0  0  0  0  0  0  0  0  0  0  0
    1.7758   -1.0475    0.6705 C   0  0  0  0  0  0  0  0  0  0  0  0
    2.0673    0.2292    0.9607 C   0  0  0  0  0  0  0  0  0  0  0  0
    1.7093    1.3884    0.0797 C   0  0  0  0  0  0  0  0  0  0  0  0
   -1.6973   -0.1219   -0.1484 C   0  0  0  0  0  0  0  0  0  0  0  0
    2.8181    1.6840   -0.9183 C   0  0  0  0  0  0  0  0  0  0  0  0
   -2.4266    2.0903    0.2575 C   0  0  0  0  0  0  0  0  0  0  0  0
   -0.7237   -2.4808   -1.2446 H   0  0  0  0  0  0  0  0  0  0  0  0
   -0.0530   -3.1349    0.2411 H   0  0  0  0  0  0  0  0  0  0  0  0
    1.7111   -2.1691   -1.1102 H   0  0  0  0  0  0  0  0  0  0  0  0
    0.8779   -0.6561   -1.2809 H   0  0  0  0  0  0  0  0  0  0  0  0
   -2.1681   -1.9925    0.7194 H   0  0  0  0  0  0  0  0  0  0  0  0
   -0.8361   -1.1524    1.5211 H   0  0  0  0  0  0  0  0  0  0  0  0
    2.0848   -1.8265    1.3624 H   0  0  0  0  0  0  0  0  0  0  0  0
    2.6101    0.4464    1.8767 H   0  0  0  0  0  0  0  0  0  0  0  0
    0.7590    1.2507   -0.4407 H   0  0  0  0  0  0  0  0  0  0  0  0
    1.5613    2.2667    0.7201 H   0  0  0  0  0  0  0  0  0  0  0  0
    2.9751    0.8446   -1.6037 H   0  0  0  0  0  0  0  0  0  0  0  0
    3.7658    1.8906   -0.4093 H   0  0  0  0  0  0  0  0  0  0  0  0
    2.5601    2.5632   -1.5175 H   0  0  0  0  0  0  0  0  0  0  0  0
   -3.3526    1.9627   -0.3112 H   0  0  0  0  0  0  0  0  0  0  0  0
   -1.6457    2.5320   -0.3688 H   0  0  0  0  0  0  0  0  0  0  0  0
   -2.6211    2.7600    1.0994 H   0  0  0  0  0  0  0  0  0  0  0  0
  1  9  1  0  0  0  0
  1 11  1  0  0  0  0
  2  9  2  0  0  0  0
  3  4  1  0  0  0  0
  3  5  1  0  0  0  0
  3 12  1  0  0  0  0
  3 13  1  0  0  0  0
  4  6  1  0  0  0  0
  4 14  1  0  0  0  0
  4 15  1  0  0  0  0
  5  9  1  0  0  0  0
  5 16  1  0  0  0  0
  5 17  1  0  0  0  0
  6  7  2  0  0  0  0
  6 18  1  0  0  0  0
  7  8  1  0  0  0  0
  7 19  1  0  0  0  0
  8 10  1  0  0  0  0
  8 20  1  0  0  0  0
  8 21  1  0  0  0  0
 10 22  1  0  0  0  0
 10 23  1  0  0  0  0
 10 24  1  0  0  0  0
 11 25  1  0  0  0  0
 11 26  1  0  0  0  0
 11 27  1  0  0  0  0
M  END
> <PUBCHEM_COMPOUND_CID>
6914062

> <PUBCHEM_CONFORMER_RMSD>
0.6

> <PUBCHEM_CONFORMER_DIVERSEORDER>
1
40
150
22
155
113
29
170
50
117
138
110
179
166
42
100
3
32
157
28
26
125
122
139
43
176
98
178
75
137
106
30
124
59
103
56
18
12
104
35
185
45
8
111
173
77
153
20
46
95
67
74
27
182
41
168
54
158
9
162
184
85
177
51
7
161
186
33
107
39
65
128
171
174
4
181
49
121
126
44
14
164
89
160
55
21
38
15
183
79
133
94
68
169
57
167
142
109
102
70
140
84
180
88
86
115
6
64
71
10
17
154
48
99
62
13
101
118
131
23
143
72
123
53
36
114
145
2
37
134
63
130
73
147
91
141
52
66
60
11
144
90
25
93
149
129
81
78
165
163
105
108
159
69
175
172
92
152
76
135
24
112
132
136
58
146
119
116
156
16
87
31
148
127
47
151
34
5
96
120
19
80
61
83
82
97

> <PUBCHEM_MMFF94_PARTIAL_CHARGES>
11
1 -0.43
11 0.28
18 0.15
19 0.15
2 -0.57
4 0.14
5 0.06
6 -0.29
7 -0.29
8 0.14
9 0.66

> <PUBCHEM_EFFECTIVE_ROTOR_COUNT>
6

> <PUBCHEM_PHARMACOPHORE_FEATURES>
3
1 10 hydrophobe
1 2 acceptor
4 3 4 5 6 hydrophobe

> <PUBCHEM_HEAVY_ATOM_COUNT>
11

> <PUBCHEM_ATOM_DEF_STEREO_COUNT>
0

> <PUBCHEM_ATOM_UDEF_STEREO_COUNT>
0

> <PUBCHEM_BOND_DEF_STEREO_COUNT>
1

> <PUBCHEM_BOND_UDEF_STEREO_COUNT>
0

> <PUBCHEM_ISOTOPIC_ATOM_COUNT>
0

> <PUBCHEM_COMPONENT_COUNT>
1

> <PUBCHEM_CACTVS_TAUTO_COUNT>
1

> <PUBCHEM_CONFORMER_ID>
0069800E00000001

> <PUBCHEM_MMFF94_ENERGY>
6.2525

> <PUBCHEM_FEATURE_SELFOVERLAP>
15.223

> <PUBCHEM_SHAPE_FINGERPRINT>
100427 49 16897922263403641698
10149128 76 18410290285397752321
12696612 119 18264206907109827427
13618510 140 18339365145450447449
14251711 518 17832698350651908280
15775835 57 18042404818978250876
17834069 17 18113907077759951483
19973954 147 18410853261115787202
207724 885 18262787463822184602
21130352 189 17690842263559866722
21922407 69 15719684267391510818
22802520 49 17914918640692570380
430814 3 18261682574657743012
5084963 1 18263059107159766522
58999712 105 18122351168269229168
66348 1 18267579302546076048

> <PUBCHEM_SHAPE_MULTIPOLES>
214.64
3.94
2.49
1.06
0.48
0.07
-0.11
2.48
-0.09
-0.28
-0.16
0.13
0.04
-0.52

> <PUBCHEM_SHAPE_SELFOVERLAP>
396.321

> <PUBCHEM_SHAPE_VOLUME>
135.4

> <PUBCHEM_COORDINATE_TYPE>
2
5
10

$$$$
