69154
  -OEChem-11232109153D

 20 20  0     0  0  0  0  0  0999 V2000
   -0.9635   -1.6180    0.1453 O   0  0  0  0  0  0  0  0  0  0  0  0
   -2.4490    1.3271   -0.7327 O   0  0  0  0  0  0  0  0  0  0  0  0
   -0.3775    0.7039    0.2555 C   0  0  0  0  0  0  0  0  0  0  0  0
   -0.0227   -0.6344    0.0847 C   0  0  0  0  0  0  0  0  0  0  0  0
   -1.7972    1.0906    0.5085 C   0  0  0  0  0  0  0  0  0  0  0  0
    0.5990    1.6979    0.1906 C   0  0  0  0  0  0  0  0  0  0  0  0
    1.3085   -0.9783   -0.1509 C   0  0  0  0  0  0  0  0  0  0  0  0
    1.9301    1.3538   -0.0449 C   0  0  0  0  0  0  0  0  0  0  0  0
    2.2849    0.0157   -0.2157 C   0  0  0  0  0  0  0  0  0  0  0  0
   -0.5127   -2.9582   -0.0404 C   0  0  0  0  0  0  0  0  0  0  0  0
   -2.3394    0.3115    1.0549 H   0  0  0  0  0  0  0  0  0  0  0  0
   -1.8508    2.0040    1.1117 H   0  0  0  0  0  0  0  0  0  0  0  0
    0.3364    2.7446    0.3198 H   0  0  0  0  0  0  0  0  0  0  0  0
    1.6585   -1.9949   -0.2931 H   0  0  0  0  0  0  0  0  0  0  0  0
    2.6904    2.1278   -0.0959 H   0  0  0  0  0  0  0  0  0  0  0  0
    3.3218   -0.2509   -0.3991 H   0  0  0  0  0  0  0  0  0  0  0  0
    0.1805   -3.2646    0.7503 H   0  0  0  0  0  0  0  0  0  0  0  0
   -0.0969   -3.1094   -1.0424 H   0  0  0  0  0  0  0  0  0  0  0  0
   -1.3912   -3.6071    0.0394 H   0  0  0  0  0  0  0  0  0  0  0  0
   -3.3650    1.5827   -0.5295 H   0  0  0  0  0  0  0  0  0  0  0  0
  1  4  1  0  0  0  0
  1 10  1  0  0  0  0
  2  5  1  0  0  0  0
  2 20  1  0  0  0  0
  3  4  1  0  0  0  0
  3  5  1  0  0  0  0
  3  6  2  0  0  0  0
  4  7  2  0  0  0  0
  5 11  1  0  0  0  0
  5 12  1  0  0  0  0
  6  8  1  0  0  0  0
  6 13  1  0  0  0  0
  7  9  1  0  0  0  0
  7 14  1  0  0  0  0
  8  9  2  0  0  0  0
  8 15  1  0  0  0  0
  9 16  1  0  0  0  0
 10 17  1  0  0  0  0
 10 18  1  0  0  0  0
 10 19  1  0  0  0  0
M  END
> <PUBCHEM_COMPOUND_CID>
69154

> <PUBCHEM_CONFORMER_RMSD>
0.4

> <PUBCHEM_CONFORMER_DIVERSEORDER>
7
4
10
9
12
1
8
5
3
2
11
6

> <PUBCHEM_MMFF94_PARTIAL_CHARGES>
15
1 -0.36
10 0.28
13 0.15
14 0.15
15 0.15
16 0.15
2 -0.68
20 0.4
3 -0.14
4 0.08
5 0.42
6 -0.15
7 -0.15
8 -0.15
9 -0.15

> <PUBCHEM_EFFECTIVE_ROTOR_COUNT>
2

> <PUBCHEM_PHARMACOPHORE_FEATURES>
4
1 1 acceptor
1 2 acceptor
1 2 donor
6 3 4 6 7 8 9 rings

> <PUBCHEM_HEAVY_ATOM_COUNT>
10

> <PUBCHEM_ATOM_DEF_STEREO_COUNT>
0

> <PUBCHEM_ATOM_UDEF_STEREO_COUNT>
0

> <PUBCHEM_BOND_DEF_STEREO_COUNT>
0

> <PUBCHEM_BOND_UDEF_STEREO_COUNT>
0

> <PUBCHEM_ISOTOPIC_ATOM_COUNT>
0

> <PUBCHEM_COMPONENT_COUNT>
1

> <PUBCHEM_CACTVS_TAUTO_COUNT>
1

> <PUBCHEM_CONFORMER_ID>
00010E2200000007

> <PUBCHEM_MMFF94_ENERGY>
32.7578

> <PUBCHEM_FEATURE_SELFOVERLAP>
20.297

> <PUBCHEM_SHAPE_FINGERPRINT>
1 1 18264767653882260477
11206711 2 18050577536162699876
12423570 1 9896645170731844426
16945 1 18194402422950849680
18185500 45 17476360496075307105
193761 8 18267306628268298824
21040471 1 18410858758905976104
23552423 10 17973728270598369892
23559900 14 18271546238691125252
241688 4 16536236186959193858
2748010 2 18338809935090916350
5084963 1 17986950743704113464

> <PUBCHEM_SHAPE_MULTIPOLES>
194.06
2.72
2.62
0.68
0.58
1.46
0.02
-1.48
0
0.62
0.34
0.01
0.16
0.15

> <PUBCHEM_SHAPE_SELFOVERLAP>
397.954

> <PUBCHEM_SHAPE_VOLUME>
112.8

> <PUBCHEM_COORDINATE_TYPE>
2
5
10

$$$$
