69220
  -OEChem-11232109003D

 18 17  0     0  0  0  0  0  0999 V2000
   -0.0003    1.7427    0.1867 S   0  0  0  0  0  0  0  0  0  0  0  0
    0.0000   -0.0329   -0.2679 C   0  0  0  0  0  0  0  0  0  0  0  0
   -1.2629   -0.7350    0.2638 C   0  0  0  0  0  0  0  0  0  0  0  0
    1.2630   -0.7350    0.2638 C   0  0  0  0  0  0  0  0  0  0  0  0
   -2.5698   -0.1200   -0.2233 C   0  0  0  0  0  0  0  0  0  0  0  0
    2.5700   -0.1198   -0.2232 C   0  0  0  0  0  0  0  0  0  0  0  0
    0.0029   -0.0817   -1.3632 H   0  0  0  0  0  0  0  0  0  0  0  0
   -1.2619   -0.7489    1.3612 H   0  0  0  0  0  0  0  0  0  0  0  0
   -1.2399   -1.7841   -0.0577 H   0  0  0  0  0  0  0  0  0  0  0  0
    1.2618   -0.7472    1.3612 H   0  0  0  0  0  0  0  0  0  0  0  0
    1.2405   -1.7845   -0.0563 H   0  0  0  0  0  0  0  0  0  0  0  0
   -3.4081   -0.7694    0.0509 H   0  0  0  0  0  0  0  0  0  0  0  0
   -2.7608    0.8572    0.2289 H   0  0  0  0  0  0  0  0  0  0  0  0
   -2.5730   -0.0112   -1.3124 H   0  0  0  0  0  0  0  0  0  0  0  0
    3.4105   -0.7583    0.0687 H   0  0  0  0  0  0  0  0  0  0  0  0
    2.5803   -0.0305   -1.3142 H   0  0  0  0  0  0  0  0  0  0  0  0
    2.7497    0.8676    0.2111 H   0  0  0  0  0  0  0  0  0  0  0  0
   -0.9524    2.1270   -0.6758 H   0  0  0  0  0  0  0  0  0  0  0  0
  1  2  1  0  0  0  0
  1 18  1  0  0  0  0
  2  3  1  0  0  0  0
  2  4  1  0  0  0  0
  2  7  1  0  0  0  0
  3  5  1  0  0  0  0
  3  8  1  0  0  0  0
  3  9  1  0  0  0  0
  4  6  1  0  0  0  0
  4 10  1  0  0  0  0
  4 11  1  0  0  0  0
  5 12  1  0  0  0  0
  5 13  1  0  0  0  0
  5 14  1  0  0  0  0
  6 15  1  0  0  0  0
  6 16  1  0  0  0  0
  6 17  1  0  0  0  0
M  END
> <PUBCHEM_COMPOUND_CID>
69220

> <PUBCHEM_CONFORMER_RMSD>
0.4

> <PUBCHEM_CONFORMER_DIVERSEORDER>
3
4
5
1
6
2
7

> <PUBCHEM_MMFF94_PARTIAL_CHARGES>
3
1 -0.41
18 0.18
2 0.23

> <PUBCHEM_EFFECTIVE_ROTOR_COUNT>
2

> <PUBCHEM_PHARMACOPHORE_FEATURES>
2
1 5 hydrophobe
1 6 hydrophobe

> <PUBCHEM_HEAVY_ATOM_COUNT>
6

> <PUBCHEM_ATOM_DEF_STEREO_COUNT>
0

> <PUBCHEM_ATOM_UDEF_STEREO_COUNT>
0

> <PUBCHEM_BOND_DEF_STEREO_COUNT>
0

> <PUBCHEM_BOND_UDEF_STEREO_COUNT>
0

> <PUBCHEM_ISOTOPIC_ATOM_COUNT>
0

> <PUBCHEM_COMPONENT_COUNT>
1

> <PUBCHEM_CACTVS_TAUTO_COUNT>
1

> <PUBCHEM_CONFORMER_ID>
00010E6400000003

> <PUBCHEM_MMFF94_ENERGY>
4.0879

> <PUBCHEM_FEATURE_SELFOVERLAP>
10.149

> <PUBCHEM_SHAPE_FINGERPRINT>
139733 1 9223230745315678299
16714656 1 18343023267890715382
20096714 4 18124033691784727097
23552333 60 17531519880763541666
23552423 10 18045227046251926950
23552449 1 18269271253657655192
29004967 10 18410859879712981978
5460574 1 10231757785983092967

> <PUBCHEM_SHAPE_MULTIPOLES>
127.33
3.28
1.39
0.69
0
0.84
0.01
-0.76
-0.34
0
0.14
0
0.01
0

> <PUBCHEM_SHAPE_SELFOVERLAP>
208.647

> <PUBCHEM_SHAPE_VOLUME>
90

> <PUBCHEM_COORDINATE_TYPE>
2
5
10

$$$$
