6931727
  -OEChem-11232109093D

 26 26  0     1  0  0  0  0  0999 V2000
    1.0306   -1.2071   -0.9607 S   0  0  0  0  0  0  0  0  0  0  0  0
    1.9447    0.9697    0.3744 O   0  0  0  0  0  0  0  0  0  0  0  0
   -0.4827   -0.1859   -1.0044 C   0  0  2  0  0  0  0  0  0  0  0  0
   -0.1451    1.3005   -0.8381 C   0  0  0  0  0  0  0  0  0  0  0  0
   -1.4856   -0.6823    0.0348 C   0  0  0  0  0  0  0  0  0  0  0  0
    0.6809    1.6278    0.4032 C   0  0  0  0  0  0  0  0  0  0  0  0
    1.8325   -0.4495    0.4884 C   0  0  2  0  0  0  0  0  0  0  0  0
   -2.8144    0.0565   -0.0822 C   0  0  0  0  0  0  0  0  0  0  0  0
    3.2428   -1.0105    0.6150 C   0  0  0  0  0  0  0  0  0  0  0  0
   -3.8037   -0.4193    0.9696 C   0  0  0  0  0  0  0  0  0  0  0  0
   -0.9185   -0.3291   -2.0005 H   0  0  0  0  0  0  0  0  0  0  0  0
   -1.0392    1.9290   -0.8629 H   0  0  0  0  0  0  0  0  0  0  0  0
    0.4422    1.6038   -1.7167 H   0  0  0  0  0  0  0  0  0  0  0  0
   -1.0967   -0.5685    1.0533 H   0  0  0  0  0  0  0  0  0  0  0  0
   -1.6711   -1.7548   -0.1116 H   0  0  0  0  0  0  0  0  0  0  0  0
    0.8825    2.7041    0.4229 H   0  0  0  0  0  0  0  0  0  0  0  0
    0.1500    1.3855    1.3303 H   0  0  0  0  0  0  0  0  0  0  0  0
    1.2745   -0.7048    1.3964 H   0  0  0  0  0  0  0  0  0  0  0  0
   -3.2437   -0.0940   -1.0793 H   0  0  0  0  0  0  0  0  0  0  0  0
   -2.6905    1.1328    0.0634 H   0  0  0  0  0  0  0  0  0  0  0  0
    3.8606   -0.7477   -0.2518 H   0  0  0  0  0  0  0  0  0  0  0  0
    3.7416   -0.5732    1.4877 H   0  0  0  0  0  0  0  0  0  0  0  0
    3.2423   -2.0986    0.7372 H   0  0  0  0  0  0  0  0  0  0  0  0
   -4.0075   -1.4894    0.8611 H   0  0  0  0  0  0  0  0  0  0  0  0
   -3.4197   -0.2429    1.9795 H   0  0  0  0  0  0  0  0  0  0  0  0
   -4.7521    0.1178    0.8689 H   0  0  0  0  0  0  0  0  0  0  0  0
  1  3  1  0  0  0  0
  1  7  1  0  0  0  0
  2  6  1  0  0  0  0
  2  7  1  0  0  0  0
  3  4  1  0  0  0  0
  3  5  1  0  0  0  0
  3 11  1  0  0  0  0
  4  6  1  0  0  0  0
  4 12  1  0  0  0  0
  4 13  1  0  0  0  0
  5  8  1  0  0  0  0
  5 14  1  0  0  0  0
  5 15  1  0  0  0  0
  6 16  1  0  0  0  0
  6 17  1  0  0  0  0
  7  9  1  0  0  0  0
  7 18  1  0  0  0  0
  8 10  1  0  0  0  0
  8 19  1  0  0  0  0
  8 20  1  0  0  0  0
  9 21  1  0  0  0  0
  9 22  1  0  0  0  0
  9 23  1  0  0  0  0
 10 24  1  0  0  0  0
 10 25  1  0  0  0  0
 10 26  1  0  0  0  0
M  END
> <PUBCHEM_COMPOUND_CID>
6931727

> <PUBCHEM_CONFORMER_RMSD>
0.6

> <PUBCHEM_CONFORMER_DIVERSEORDER>
1
4
8
11
9
6
5
3
10
7
2

> <PUBCHEM_MMFF94_PARTIAL_CHARGES>
5
1 -0.46
2 -0.56
3 0.23
6 0.28
7 0.51

> <PUBCHEM_EFFECTIVE_ROTOR_COUNT>
3.2

> <PUBCHEM_PHARMACOPHORE_FEATURES>
3
1 10 hydrophobe
1 2 acceptor
6 1 2 3 4 6 7 rings

> <PUBCHEM_HEAVY_ATOM_COUNT>
10

> <PUBCHEM_ATOM_DEF_STEREO_COUNT>
2

> <PUBCHEM_ATOM_UDEF_STEREO_COUNT>
0

> <PUBCHEM_BOND_DEF_STEREO_COUNT>
0

> <PUBCHEM_BOND_UDEF_STEREO_COUNT>
0

> <PUBCHEM_ISOTOPIC_ATOM_COUNT>
0

> <PUBCHEM_COMPONENT_COUNT>
1

> <PUBCHEM_CACTVS_TAUTO_COUNT>
1

> <PUBCHEM_CONFORMER_ID>
0069C50F00000001

> <PUBCHEM_MMFF94_ENERGY>
13.6386

> <PUBCHEM_FEATURE_SELFOVERLAP>
15.223

> <PUBCHEM_SHAPE_FINGERPRINT>
10219947 1 18272086097676373119
12251169 10 18343298184494751435
12423570 1 12328126122013333140
124424 183 18260820454678486509
12897270 3 8430315736248872947
14128692 85 15285363920277288591
14390081 3 13830141576723497283
15775835 57 15267059233560487147
16945 1 18130785642113765341
17834069 15 18409165476860950297
20281407 28 17749388135329369691
20653091 64 18188225285153643705
20871998 22 18269844111968681734
21061003 4 18200580411557859754
21293036 1 11242260627596879074
230 275 16773253841588820505
23380061 451 18040716930926930210
2748010 2 17769368323496226174
29004967 10 18113610218268603628
528862 383 18336542845362546956

> <PUBCHEM_SHAPE_MULTIPOLES>
203.78
4.98
1.49
1.08
2.9
0.48
0.12
-1.61
-2.26
-0.64
0.07
0.06
-0.11
0.18

> <PUBCHEM_SHAPE_SELFOVERLAP>
372.25

> <PUBCHEM_SHAPE_VOLUME>
130.2

> <PUBCHEM_COORDINATE_TYPE>
2
5
10

$$$$
