6932095
  -OEChem-11232108573D

 34 35  0     0  0  0  0  0  0999 V2000
    5.1116   -0.9807    0.3617 O   0  0  0  0  0  0  0  0  0  0  0  0
   -3.9063   -0.0229   -0.1680 N   0  3  0  0  0  0  0  0  0  0  0  0
   -1.0709    0.0525   -0.0018 N   0  0  0  0  0  0  0  0  0  0  0  0
   -3.1070   -1.2929   -0.3136 C   0  0  0  0  0  0  0  0  0  0  0  0
   -3.2300    0.9332    0.7805 C   0  0  0  0  0  0  0  0  0  0  0  0
   -1.7218   -0.9558   -0.8486 C   0  0  0  0  0  0  0  0  0  0  0  0
   -1.8422    1.2734    0.2521 C   0  0  0  0  0  0  0  0  0  0  0  0
   -5.3281   -0.2987    0.2329 C   0  0  0  0  0  0  0  0  0  0  0  0
    0.3275    0.1097   -0.0199 C   0  0  0  0  0  0  0  0  0  0  0  0
    1.1029   -1.0026    0.3619 C   0  0  0  0  0  0  0  0  0  0  0  0
    1.0001    1.2812   -0.4192 C   0  0  0  0  0  0  0  0  0  0  0  0
    2.4965   -0.9456    0.3451 C   0  0  0  0  0  0  0  0  0  0  0  0
    2.3937    1.3382   -0.4364 C   0  0  0  0  0  0  0  0  0  0  0  0
    3.1420    0.2248   -0.0541 C   0  0  0  0  0  0  0  0  0  0  0  0
    4.6320    0.2861   -0.0725 C   0  0  0  0  0  0  0  0  0  0  0  0
   -3.9442    0.4293   -1.0920 H   0  0  0  0  0  0  0  0  0  0  0  0
   -3.6431   -1.9448   -1.0110 H   0  0  0  0  0  0  0  0  0  0  0  0
   -3.0587   -1.7688    0.6725 H   0  0  0  0  0  0  0  0  0  0  0  0
   -3.1835    0.4472    1.7619 H   0  0  0  0  0  0  0  0  0  0  0  0
   -3.8507    1.8328    0.8455 H   0  0  0  0  0  0  0  0  0  0  0  0
   -1.1417   -1.8844   -0.8946 H   0  0  0  0  0  0  0  0  0  0  0  0
   -1.7942   -0.5722   -1.8743 H   0  0  0  0  0  0  0  0  0  0  0  0
   -1.9291    1.8579   -0.6726 H   0  0  0  0  0  0  0  0  0  0  0  0
   -1.3433    1.9004    1.0014 H   0  0  0  0  0  0  0  0  0  0  0  0
   -5.7733   -0.9491   -0.5245 H   0  0  0  0  0  0  0  0  0  0  0  0
   -5.3282   -0.7814    1.2139 H   0  0  0  0  0  0  0  0  0  0  0  0
   -5.8618    0.6548    0.2647 H   0  0  0  0  0  0  0  0  0  0  0  0
    0.6209   -1.9213    0.6894 H   0  0  0  0  0  0  0  0  0  0  0  0
    0.4507    2.1641   -0.7367 H   0  0  0  0  0  0  0  0  0  0  0  0
    3.0296   -1.8393    0.6549 H   0  0  0  0  0  0  0  0  0  0  0  0
    2.8878    2.2535   -0.7517 H   0  0  0  0  0  0  0  0  0  0  0  0
    5.0010    0.4725   -1.0856 H   0  0  0  0  0  0  0  0  0  0  0  0
    4.9981    1.0544    0.6151 H   0  0  0  0  0  0  0  0  0  0  0  0
    6.0829   -0.9369    0.3484 H   0  0  0  0  0  0  0  0  0  0  0  0
  1 15  1  0  0  0  0
  1 34  1  0  0  0  0
  2  4  1  0  0  0  0
  2  5  1  0  0  0  0
  2  8  1  0  0  0  0
  2 16  1  0  0  0  0
  3  6  1  0  0  0  0
  3  7  1  0  0  0  0
  3  9  1  0  0  0  0
  4  6  1  0  0  0  0
  4 17  1  0  0  0  0
  4 18  1  0  0  0  0
  5  7  1  0  0  0  0
  5 19  1  0  0  0  0
  5 20  1  0  0  0  0
  6 21  1  0  0  0  0
  6 22  1  0  0  0  0
  7 23  1  0  0  0  0
  7 24  1  0  0  0  0
  8 25  1  0  0  0  0
  8 26  1  0  0  0  0
  8 27  1  0  0  0  0
  9 10  2  0  0  0  0
  9 11  1  0  0  0  0
 10 12  1  0  0  0  0
 10 28  1  0  0  0  0
 11 13  2  0  0  0  0
 11 29  1  0  0  0  0
 12 14  2  0  0  0  0
 12 30  1  0  0  0  0
 13 14  1  0  0  0  0
 13 31  1  0  0  0  0
 14 15  1  0  0  0  0
 15 32  1  0  0  0  0
 15 33  1  0  0  0  0
M  CHG  1   2   1
M  END
> <PUBCHEM_COMPOUND_CID>
6932095

> <PUBCHEM_CONFORMER_RMSD>
0.6

> <PUBCHEM_CONFORMER_DIVERSEORDER>
9
7
12
6
1
13
11
10
5
4
14
8
2
3

> <PUBCHEM_MMFF94_PARTIAL_CHARGES>
21
1 -0.68
10 -0.15
11 -0.15
12 -0.15
13 -0.15
14 -0.14
15 0.42
16 0.45
2 -0.96
28 0.15
29 0.15
3 -0.84
30 0.15
31 0.15
34 0.4
4 0.5
5 0.5
6 0.37
7 0.37
8 0.5
9 0.1

> <PUBCHEM_EFFECTIVE_ROTOR_COUNT>
3.2

> <PUBCHEM_PHARMACOPHORE_FEATURES>
7
1 1 acceptor
1 1 donor
1 2 cation
1 2 donor
1 3 cation
6 2 3 4 5 6 7 rings
6 9 10 11 12 13 14 rings

> <PUBCHEM_HEAVY_ATOM_COUNT>
15

> <PUBCHEM_ATOM_DEF_STEREO_COUNT>
0

> <PUBCHEM_ATOM_UDEF_STEREO_COUNT>
0

> <PUBCHEM_BOND_DEF_STEREO_COUNT>
0

> <PUBCHEM_BOND_UDEF_STEREO_COUNT>
0

> <PUBCHEM_ISOTOPIC_ATOM_COUNT>
0

> <PUBCHEM_COMPONENT_COUNT>
1

> <PUBCHEM_CACTVS_TAUTO_COUNT>
1

> <PUBCHEM_CONFORMER_ID>
0069C67F00000009

> <PUBCHEM_MMFF94_ENERGY>
51.9154

> <PUBCHEM_FEATURE_SELFOVERLAP>
35.523

> <PUBCHEM_SHAPE_FINGERPRINT>
10465860 250 17346877840838894712
11401426 45 18408599279838250744
11471102 20 18186801396268471988
12236239 1 18411982468437286145
12251169 10 18412827988536579933
13690532 89 18334294262521336960
13760787 5 17822014207602830044
13862211 1 18187080612477753922
14144814 61 18412545396857868209
15196674 1 18337953505632142607
15375462 189 18334008368049691778
15536298 74 18342455993338048904
17802600 8 18411979165454883481
17834072 33 18410575119070335716
17862501 102 18411697682056608200
1813 80 17895203143239672526
18186145 218 17822281435561219919
18522853 276 18342175574469528048
19050596 39 18412546539261088257
19422 9 18339364166134035494
200 152 18410290324458451429
20279233 1 15936413329595668361
20645477 70 17458615671272951386
21267235 1 18410301306352360099
23402539 116 17775559832628921013
23402655 69 18334853896649483069
23557571 272 17131845239319455136
23559900 14 18059570343388142240
26918003 58 18040719186338349787
42 15 18412827988299209501
4214541 1 18411136913978468425
474 4 18043534030337001404
5104073 3 18340769350647572011
542803 24 13406792216207085991
9981440 41 17329424459606463336

> <PUBCHEM_SHAPE_MULTIPOLES>
292.86
9.84
1.39
0.76
0.63
0.1
0.02
-1.41
-0.91
-0.04
0.04
0.15
0
-0.71

> <PUBCHEM_SHAPE_SELFOVERLAP>
600.926

> <PUBCHEM_SHAPE_VOLUME>
169.5

> <PUBCHEM_COORDINATE_TYPE>
2
5
10

$$$$
