69350
  -OEChem-11232108513D

 44 43  0     0  0  0  0  0  0999 V2000
    2.3421   -1.2189    0.6752 O   0  0  0  0  0  0  0  0  0  0  0  0
    3.4897   -0.6723   -1.2496 O   0  0  0  0  0  0  0  0  0  0  0  0
   -1.7952   -1.7681   -0.4493 C   0  0  0  0  0  0  0  0  0  0  0  0
   -0.4647   -1.8827    0.2980 C   0  0  0  0  0  0  0  0  0  0  0  0
   -2.9546   -1.3078    0.4390 C   0  0  0  0  0  0  0  0  0  0  0  0
    0.6598   -2.3218   -0.6389 C   0  0  0  0  0  0  0  0  0  0  0  0
    1.1873    1.9600   -0.1294 C   0  0  0  0  0  0  0  0  0  0  0  0
    2.0944    1.6042    1.0527 C   0  0  0  0  0  0  0  0  0  0  0  0
   -0.0937    2.6505    0.3429 C   0  0  0  0  0  0  0  0  0  0  0  0
   -4.2676   -1.1222   -0.3226 C   0  0  0  0  0  0  0  0  0  0  0  0
    1.9795   -2.4796    0.1027 C   0  0  0  0  0  0  0  0  0  0  0  0
    3.3710    0.8870    0.6137 C   0  0  0  0  0  0  0  0  0  0  0  0
   -1.0130    2.9809   -0.8327 C   0  0  0  0  0  0  0  0  0  0  0  0
    3.1042   -0.4095   -0.1188 C   0  0  0  0  0  0  0  0  0  0  0  0
   -5.3669   -0.5965    0.5880 C   0  0  0  0  0  0  0  0  0  0  0  0
   -2.2723    3.6966   -0.3710 C   0  0  0  0  0  0  0  0  0  0  0  0
   -1.6795   -1.0588   -1.2786 H   0  0  0  0  0  0  0  0  0  0  0  0
   -2.0486   -2.7379   -0.8949 H   0  0  0  0  0  0  0  0  0  0  0  0
   -0.2244   -0.9145    0.7520 H   0  0  0  0  0  0  0  0  0  0  0  0
   -0.5691   -2.6056    1.1161 H   0  0  0  0  0  0  0  0  0  0  0  0
   -2.6794   -0.3582    0.9154 H   0  0  0  0  0  0  0  0  0  0  0  0
   -3.1010   -2.0357    1.2465 H   0  0  0  0  0  0  0  0  0  0  0  0
    0.3985   -3.2767   -1.1094 H   0  0  0  0  0  0  0  0  0  0  0  0
    0.7682   -1.5799   -1.4388 H   0  0  0  0  0  0  0  0  0  0  0  0
    1.7280    2.6172   -0.8212 H   0  0  0  0  0  0  0  0  0  0  0  0
    0.9184    1.0558   -0.6871 H   0  0  0  0  0  0  0  0  0  0  0  0
    2.3724    2.5206    1.5873 H   0  0  0  0  0  0  0  0  0  0  0  0
    1.5403    0.9798    1.7638 H   0  0  0  0  0  0  0  0  0  0  0  0
   -0.6239    2.0001    1.0494 H   0  0  0  0  0  0  0  0  0  0  0  0
    0.1634    3.5712    0.8809 H   0  0  0  0  0  0  0  0  0  0  0  0
   -4.5810   -2.0772   -0.7593 H   0  0  0  0  0  0  0  0  0  0  0  0
   -4.1203   -0.4185   -1.1501 H   0  0  0  0  0  0  0  0  0  0  0  0
    1.8747   -3.1951    0.9254 H   0  0  0  0  0  0  0  0  0  0  0  0
    2.7642   -2.8654   -0.5583 H   0  0  0  0  0  0  0  0  0  0  0  0
    4.0045    0.6654    1.4797 H   0  0  0  0  0  0  0  0  0  0  0  0
    3.9516    1.5370   -0.0514 H   0  0  0  0  0  0  0  0  0  0  0  0
   -0.4835    3.6150   -1.5532 H   0  0  0  0  0  0  0  0  0  0  0  0
   -1.2936    2.0590   -1.3557 H   0  0  0  0  0  0  0  0  0  0  0  0
   -5.5574   -1.2897    1.4134 H   0  0  0  0  0  0  0  0  0  0  0  0
   -6.2978   -0.4734    0.0257 H   0  0  0  0  0  0  0  0  0  0  0  0
   -5.0947    0.3759    1.0110 H   0  0  0  0  0  0  0  0  0  0  0  0
   -2.8429    3.0746    0.3263 H   0  0  0  0  0  0  0  0  0  0  0  0
   -2.9149    3.9234   -1.2274 H   0  0  0  0  0  0  0  0  0  0  0  0
   -2.0276    4.6389    0.1293 H   0  0  0  0  0  0  0  0  0  0  0  0
  1 11  1  0  0  0  0
  1 14  1  0  0  0  0
  2 14  2  0  0  0  0
  3  4  1  0  0  0  0
  3  5  1  0  0  0  0
  3 17  1  0  0  0  0
  3 18  1  0  0  0  0
  4  6  1  0  0  0  0
  4 19  1  0  0  0  0
  4 20  1  0  0  0  0
  5 10  1  0  0  0  0
  5 21  1  0  0  0  0
  5 22  1  0  0  0  0
  6 11  1  0  0  0  0
  6 23  1  0  0  0  0
  6 24  1  0  0  0  0
  7  8  1  0  0  0  0
  7  9  1  0  0  0  0
  7 25  1  0  0  0  0
  7 26  1  0  0  0  0
  8 12  1  0  0  0  0
  8 27  1  0  0  0  0
  8 28  1  0  0  0  0
  9 13  1  0  0  0  0
  9 29  1  0  0  0  0
  9 30  1  0  0  0  0
 10 15  1  0  0  0  0
 10 31  1  0  0  0  0
 10 32  1  0  0  0  0
 11 33  1  0  0  0  0
 11 34  1  0  0  0  0
 12 14  1  0  0  0  0
 12 35  1  0  0  0  0
 12 36  1  0  0  0  0
 13 16  1  0  0  0  0
 13 37  1  0  0  0  0
 13 38  1  0  0  0  0
 15 39  1  0  0  0  0
 15 40  1  0  0  0  0
 15 41  1  0  0  0  0
 16 42  1  0  0  0  0
 16 43  1  0  0  0  0
 16 44  1  0  0  0  0
M  END
> <PUBCHEM_COMPOUND_CID>
69350

> <PUBCHEM_CONFORMER_RMSD>
1.2

> <PUBCHEM_CONFORMER_DIVERSEORDER>
2
1
509
73
207
242
56
12
3
84
522
366
151
135
36
11
17
86
479
4
33
120
68
379
173
270
103
34
20
413
454
79
225
142
393
496
18
52
35
6
486
419
138
421
540
100
266
81
305
480
127
31
8
30
554
29
429
93
548
336
108
202
38
110
88
43
5
144
323
114
55
481
518
41
195
437
46
462
197
149
83
247
430
485
192
438
532
324
252
383
390
184
538

> <PUBCHEM_MMFF94_PARTIAL_CHARGES>
5
1 -0.43
11 0.28
12 0.06
14 0.66
2 -0.57

> <PUBCHEM_EFFECTIVE_ROTOR_COUNT>
12

> <PUBCHEM_PHARMACOPHORE_FEATURES>
5
1 15 hydrophobe
1 16 hydrophobe
1 2 acceptor
5 3 4 5 6 10 hydrophobe
5 7 8 9 12 13 hydrophobe

> <PUBCHEM_HEAVY_ATOM_COUNT>
16

> <PUBCHEM_ATOM_DEF_STEREO_COUNT>
0

> <PUBCHEM_ATOM_UDEF_STEREO_COUNT>
0

> <PUBCHEM_BOND_DEF_STEREO_COUNT>
0

> <PUBCHEM_BOND_UDEF_STEREO_COUNT>
0

> <PUBCHEM_ISOTOPIC_ATOM_COUNT>
0

> <PUBCHEM_COMPONENT_COUNT>
1

> <PUBCHEM_CACTVS_TAUTO_COUNT>
1

> <PUBCHEM_CONFORMER_ID>
00010EE600000002

> <PUBCHEM_MMFF94_ENERGY>
-0.8704

> <PUBCHEM_FEATURE_SELFOVERLAP>
25.374

> <PUBCHEM_SHAPE_FINGERPRINT>
104564 63 18409733919734502580
10688039 33 18113334202633182789
10708813 3 18272385139560117281
116883 192 18410293631177568169
13075007 39 17751942439139393059
14026960 21 17399240140718593219
15210252 30 17968950823666816372
17093844 170 18410001148373744809
17859628 37 18268710695747524623
18785283 64 17900556875956352011
20606313 2 18340205296840497779
20621476 13 18122330539989719021
20621476 7 18411427206823568913
3014063 31 18410569557604859925
3060560 45 17988649609655517582
5283268 108 18408044009318055417
5939293 188 18195804304671523216
7832392 63 18197494245395925822

> <PUBCHEM_SHAPE_MULTIPOLES>
317.53
7.67
4.48
0.95
7.77
3.8
0.04
-2.53
-0.89
1.15
0.7
-0.27
0.09
0.8

> <PUBCHEM_SHAPE_SELFOVERLAP>
578.78

> <PUBCHEM_SHAPE_VOLUME>
202.2

> <PUBCHEM_COORDINATE_TYPE>
2
5
10

$$$$
