69415
  -OEChem-11232109223D

 19 18  0     0  0  0  0  0  0999 V2000
   -4.0883    0.6364    0.1795 S   0  0  0  0  0  0  0  0  0  0  0  0
   -1.4188    0.1652   -0.3782 N   0  0  0  0  0  0  0  0  0  0  0  0
    1.4929    0.0689    0.2121 C   0  0  0  0  0  0  0  0  0  0  0  0
    0.6279   -1.1499   -0.1226 C   0  0  0  0  0  0  0  0  0  0  0  0
    2.9507   -0.1595   -0.1883 C   0  0  0  0  0  0  0  0  0  0  0  0
   -0.8212   -0.9754    0.3179 C   0  0  0  0  0  0  0  0  0  0  0  0
    3.8087    1.0588    0.1136 C   0  0  0  0  0  0  0  0  0  0  0  0
   -2.5520    0.3556   -0.1339 C   0  0  0  0  0  0  0  0  0  0  0  0
    1.4364    0.2756    1.2878 H   0  0  0  0  0  0  0  0  0  0  0  0
    1.1109    0.9552   -0.3081 H   0  0  0  0  0  0  0  0  0  0  0  0
    0.6620   -1.3328   -1.2039 H   0  0  0  0  0  0  0  0  0  0  0  0
    1.0418   -2.0390    0.3680 H   0  0  0  0  0  0  0  0  0  0  0  0
    3.3532   -1.0261    0.3490 H   0  0  0  0  0  0  0  0  0  0  0  0
    3.0119   -0.3844   -1.2595 H   0  0  0  0  0  0  0  0  0  0  0  0
   -0.8565   -0.8279    1.4056 H   0  0  0  0  0  0  0  0  0  0  0  0
   -1.3698   -1.8985    0.0875 H   0  0  0  0  0  0  0  0  0  0  0  0
    4.8469    0.8730   -0.1789 H   0  0  0  0  0  0  0  0  0  0  0  0
    3.7936    1.2938    1.1827 H   0  0  0  0  0  0  0  0  0  0  0  0
    3.4526    1.9358   -0.4363 H   0  0  0  0  0  0  0  0  0  0  0  0
  1  8  2  0  0  0  0
  2  6  1  0  0  0  0
  2  8  2  0  0  0  0
  3  4  1  0  0  0  0
  3  5  1  0  0  0  0
  3  9  1  0  0  0  0
  3 10  1  0  0  0  0
  4  6  1  0  0  0  0
  4 11  1  0  0  0  0
  4 12  1  0  0  0  0
  5  7  1  0  0  0  0
  5 13  1  0  0  0  0
  5 14  1  0  0  0  0
  6 15  1  0  0  0  0
  6 16  1  0  0  0  0
  7 17  1  0  0  0  0
  7 18  1  0  0  0  0
  7 19  1  0  0  0  0
M  END
> <PUBCHEM_COMPOUND_CID>
69415

> <PUBCHEM_CONFORMER_RMSD>
0.6

> <PUBCHEM_CONFORMER_DIVERSEORDER>
1
52
39
48
50
32
41
53
2
45
46
44
54
6
30
36
47
43
18
49
28
9
51
24
26
19
12
55
5
25
37
34
11
15
10
42
20
38
23
31
8
40
4
13
29
33
16
27
17
22
14
35
7
3
21

> <PUBCHEM_MMFF94_PARTIAL_CHARGES>
4
1 -0.27
2 -0.55
6 0.25
8 0.57

> <PUBCHEM_EFFECTIVE_ROTOR_COUNT>
4

> <PUBCHEM_PHARMACOPHORE_FEATURES>
3
1 1 acceptor
1 2 acceptor
1 7 hydrophobe

> <PUBCHEM_HEAVY_ATOM_COUNT>
8

> <PUBCHEM_ATOM_DEF_STEREO_COUNT>
0

> <PUBCHEM_ATOM_UDEF_STEREO_COUNT>
0

> <PUBCHEM_BOND_DEF_STEREO_COUNT>
0

> <PUBCHEM_BOND_UDEF_STEREO_COUNT>
0

> <PUBCHEM_ISOTOPIC_ATOM_COUNT>
0

> <PUBCHEM_COMPONENT_COUNT>
1

> <PUBCHEM_CACTVS_TAUTO_COUNT>
1

> <PUBCHEM_CONFORMER_ID>
00010F2700000001

> <PUBCHEM_MMFF94_ENERGY>
-0.2919

> <PUBCHEM_FEATURE_SELFOVERLAP>
15.228

> <PUBCHEM_SHAPE_FINGERPRINT>
10149128 111 18411987957126220944
11062470 55 14692567719430187586
14325111 11 18410292510174961366
14390081 3 18411135827013859596
170605 34 18409167679746695483
177051 138 8502381035600645704
20211469 26 10881397638490110793
20281407 28 9727632817007163102
21119208 17 15626507193935611632
21293036 1 16917066672124371299
22485316 2 8862939459443032073
23235685 24 18409725162211809289

> <PUBCHEM_SHAPE_MULTIPOLES>
163.5
7.46
1.13
0.66
1.1
0.11
0.01
-3.47
0.2
-0.32
0.04
0.05
0
0.09

> <PUBCHEM_SHAPE_SELFOVERLAP>
284.324

> <PUBCHEM_SHAPE_VOLUME>
108.5

> <PUBCHEM_COORDINATE_TYPE>
2
5
10

$$$$
