69467
  -OEChem-11232109033D

 13 13  0     0  0  0  0  0  0999 V2000
   -0.6867    1.4382   -0.0658 S   0  0  0  0  0  0  0  0  0  0  0  0
    2.5733   -0.3079   -0.5439 O   0  0  0  0  0  0  0  0  0  0  0  0
    0.3616    0.1150    0.2216 C   0  0  0  0  0  0  0  0  0  0  0  0
    1.8019    0.3636    0.4504 C   0  0  0  0  0  0  0  0  0  0  0  0
   -0.3081   -1.0886    0.2035 C   0  0  0  0  0  0  0  0  0  0  0  0
   -1.7004   -0.9223   -0.0500 C   0  0  0  0  0  0  0  0  0  0  0  0
   -2.0416    0.4019   -0.2157 C   0  0  0  0  0  0  0  0  0  0  0  0
    2.0585    1.4276    0.4144 H   0  0  0  0  0  0  0  0  0  0  0  0
    2.0977   -0.0241    1.4312 H   0  0  0  0  0  0  0  0  0  0  0  0
    0.1731   -2.0450    0.3644 H   0  0  0  0  0  0  0  0  0  0  0  0
   -2.4153   -1.7327   -0.1076 H   0  0  0  0  0  0  0  0  0  0  0  0
   -3.0217    0.8103   -0.4176 H   0  0  0  0  0  0  0  0  0  0  0  0
    3.5089   -0.1371   -0.3412 H   0  0  0  0  0  0  0  0  0  0  0  0
  1  3  1  0  0  0  0
  1  7  1  0  0  0  0
  2  4  1  0  0  0  0
  2 13  1  0  0  0  0
  3  4  1  0  0  0  0
  3  5  2  0  0  0  0
  4  8  1  0  0  0  0
  4  9  1  0  0  0  0
  5  6  1  0  0  0  0
  5 10  1  0  0  0  0
  6  7  2  0  0  0  0
  6 11  1  0  0  0  0
  7 12  1  0  0  0  0
M  END
> <PUBCHEM_COMPOUND_CID>
69467

> <PUBCHEM_CONFORMER_RMSD>
0.4

> <PUBCHEM_CONFORMER_DIVERSEORDER>
1
4
2
3

> <PUBCHEM_MMFF94_PARTIAL_CHARGES>
11
1 -0.08
10 0.15
11 0.15
12 0.15
13 0.4
2 -0.68
3 -0.14
4 0.46
5 -0.15
6 -0.15
7 -0.11

> <PUBCHEM_EFFECTIVE_ROTOR_COUNT>
1

> <PUBCHEM_PHARMACOPHORE_FEATURES>
3
1 2 acceptor
1 2 donor
5 1 3 5 6 7 rings

> <PUBCHEM_HEAVY_ATOM_COUNT>
7

> <PUBCHEM_ATOM_DEF_STEREO_COUNT>
0

> <PUBCHEM_ATOM_UDEF_STEREO_COUNT>
0

> <PUBCHEM_BOND_DEF_STEREO_COUNT>
0

> <PUBCHEM_BOND_UDEF_STEREO_COUNT>
0

> <PUBCHEM_ISOTOPIC_ATOM_COUNT>
0

> <PUBCHEM_COMPONENT_COUNT>
1

> <PUBCHEM_CACTVS_TAUTO_COUNT>
1

> <PUBCHEM_CONFORMER_ID>
00010F5B00000001

> <PUBCHEM_MMFF94_ENERGY>
5.5587

> <PUBCHEM_FEATURE_SELFOVERLAP>
15.223

> <PUBCHEM_SHAPE_FINGERPRINT>
16714656 1 18409168805101752653
20096714 4 18335976480735857105
21040471 1 18192983829623444217
23552423 10 18260268529716508634
29004967 10 16702302368906490210

> <PUBCHEM_SHAPE_MULTIPOLES>
142.04
2.9
1.32
0.7
1.31
0.19
0
-0.18
-0.37
-0.45
0.01
0.11
0.01
0.12

> <PUBCHEM_SHAPE_SELFOVERLAP>
273.675

> <PUBCHEM_SHAPE_VOLUME>
87.7

> <PUBCHEM_COORDINATE_TYPE>
2
5
10

$$$$
