6950479
  -OEChem-11232109143D

 17 16  0     1  0  0  0  0  0999 V2000
   -1.4723    0.9963   -0.9359 O   0  0  0  0  0  0  0  0  0  0  0  0
   -1.2762    0.3462    1.2286 O   0  0  0  0  0  0  0  0  0  0  0  0
    0.2384   -0.5961   -0.4332 C   0  0  1  0  0  0  0  0  0  0  0  0
    1.5738   -0.2117    0.2240 C   0  0  0  0  0  0  0  0  0  0  0  0
   -0.1003   -2.0557   -0.1403 C   0  0  0  0  0  0  0  0  0  0  0  0
    1.9424    1.2483   -0.0077 C   0  0  0  0  0  0  0  0  0  0  0  0
   -0.9057    0.2728    0.0644 C   0  0  0  0  0  0  0  0  0  0  0  0
    0.3266   -0.4713   -1.5197 H   0  0  0  0  0  0  0  0  0  0  0  0
    2.3726   -0.8484   -0.1748 H   0  0  0  0  0  0  0  0  0  0  0  0
    1.5291   -0.3919    1.3053 H   0  0  0  0  0  0  0  0  0  0  0  0
   -1.0544   -2.3333   -0.6017 H   0  0  0  0  0  0  0  0  0  0  0  0
   -0.1899   -2.2397    0.9362 H   0  0  0  0  0  0  0  0  0  0  0  0
    0.6733   -2.7220   -0.5360 H   0  0  0  0  0  0  0  0  0  0  0  0
    1.9772    1.4783   -1.0773 H   0  0  0  0  0  0  0  0  0  0  0  0
    1.2279    1.9259    0.4693 H   0  0  0  0  0  0  0  0  0  0  0  0
    2.9304    1.4568    0.4155 H   0  0  0  0  0  0  0  0  0  0  0  0
   -2.2018    1.5642   -0.6081 H   0  0  0  0  0  0  0  0  0  0  0  0
  1  7  1  0  0  0  0
  1 17  1  0  0  0  0
  2  7  2  0  0  0  0
  3  4  1  0  0  0  0
  3  5  1  0  0  0  0
  3  7  1  0  0  0  0
  3  8  1  0  0  0  0
  4  6  1  0  0  0  0
  4  9  1  0  0  0  0
  4 10  1  0  0  0  0
  5 11  1  0  0  0  0
  5 12  1  0  0  0  0
  5 13  1  0  0  0  0
  6 14  1  0  0  0  0
  6 15  1  0  0  0  0
  6 16  1  0  0  0  0
M  END
> <PUBCHEM_COMPOUND_CID>
6950479

> <PUBCHEM_CONFORMER_RMSD>
0.4

> <PUBCHEM_CONFORMER_DIVERSEORDER>
1
5
7
3
4
6
8
2

> <PUBCHEM_MMFF94_PARTIAL_CHARGES>
5
1 -0.65
17 0.5
2 -0.57
3 0.06
7 0.66

> <PUBCHEM_EFFECTIVE_ROTOR_COUNT>
2

> <PUBCHEM_PHARMACOPHORE_FEATURES>
5
1 1 acceptor
1 2 acceptor
1 5 hydrophobe
1 6 hydrophobe
3 1 2 7 anion

> <PUBCHEM_HEAVY_ATOM_COUNT>
7

> <PUBCHEM_ATOM_DEF_STEREO_COUNT>
1

> <PUBCHEM_ATOM_UDEF_STEREO_COUNT>
0

> <PUBCHEM_BOND_DEF_STEREO_COUNT>
0

> <PUBCHEM_BOND_UDEF_STEREO_COUNT>
0

> <PUBCHEM_ISOTOPIC_ATOM_COUNT>
0

> <PUBCHEM_COMPONENT_COUNT>
1

> <PUBCHEM_CACTVS_TAUTO_COUNT>
1

> <PUBCHEM_CONFORMER_ID>
006A0E4F00000001

> <PUBCHEM_MMFF94_ENERGY>
4.3342

> <PUBCHEM_FEATURE_SELFOVERLAP>
25.43

> <PUBCHEM_SHAPE_FINGERPRINT>
137420 1 15016196571732609526
20096714 4 18413390938548101360
21040471 1 18411694409270481468
24536 1 17846502590405635600
29004967 10 17689726259247319579
5084963 1 18272925012263593622
5943 1 17181686359040917827

> <PUBCHEM_SHAPE_MULTIPOLES>
132.32
2.13
1.66
0.89
1.19
0.77
-0.1
-0.79
-0.08
-0.4
0.18
-0.3
-0.21
0.01

> <PUBCHEM_SHAPE_SELFOVERLAP>
239.904

> <PUBCHEM_SHAPE_VOLUME>
85.6

> <PUBCHEM_COORDINATE_TYPE>
2
5
10

$$$$
