69516
  -OEChem-11232109093D

 30 32  0     0  0  0  0  0  0999 V2000
   -1.6188    2.2232    0.9606 O   0  0  0  0  0  0  0  0  0  0  0  0
    2.1722   -0.1443    0.5640 C   0  0  0  0  0  0  0  0  0  0  0  0
    2.6564    0.2314   -0.7117 C   0  0  0  0  0  0  0  0  0  0  0  0
    0.0135    0.8368    0.0203 C   0  0  0  0  0  0  0  0  0  0  0  0
    0.8480    0.1658    0.9146 C   0  0  0  0  0  0  0  0  0  0  0  0
    1.8024    0.9063   -1.5991 C   0  0  0  0  0  0  0  0  0  0  0  0
    0.4896    1.2063   -1.2341 C   0  0  0  0  0  0  0  0  0  0  0  0
   -1.3554    1.1498    0.3985 C   0  0  0  0  0  0  0  0  0  0  0  0
    3.0260   -0.8195    1.4512 C   0  0  0  0  0  0  0  0  0  0  0  0
    3.9804   -0.0790   -1.0623 C   0  0  0  0  0  0  0  0  0  0  0  0
   -2.4922    0.2164    0.1357 C   0  0  0  0  0  0  0  0  0  0  0  0
    4.3386   -1.1199    1.0861 C   0  0  0  0  0  0  0  0  0  0  0  0
    4.8150   -0.7503   -0.1682 C   0  0  0  0  0  0  0  0  0  0  0  0
   -2.2289   -0.9818   -0.4860 C   0  0  0  0  0  0  0  0  0  0  0  0
   -3.7559    0.5928    0.5268 C   0  0  0  0  0  0  0  0  0  0  0  0
   -3.2900   -1.8532   -0.7311 C   0  0  0  0  0  0  0  0  0  0  0  0
   -4.8170   -0.2787    0.2818 C   0  0  0  0  0  0  0  0  0  0  0  0
   -4.5840   -1.5018   -0.3472 C   0  0  0  0  0  0  0  0  0  0  0  0
    0.4649   -0.1185    1.8936 H   0  0  0  0  0  0  0  0  0  0  0  0
    2.1534    1.2045   -2.5848 H   0  0  0  0  0  0  0  0  0  0  0  0
   -0.1521    1.7294   -1.9386 H   0  0  0  0  0  0  0  0  0  0  0  0
    2.6752   -1.1182    2.4369 H   0  0  0  0  0  0  0  0  0  0  0  0
    4.3739    0.2001   -2.0376 H   0  0  0  0  0  0  0  0  0  0  0  0
    4.9887   -1.6425    1.7816 H   0  0  0  0  0  0  0  0  0  0  0  0
    5.8370   -0.9845   -0.4519 H   0  0  0  0  0  0  0  0  0  0  0  0
   -1.2373   -1.2899   -0.7988 H   0  0  0  0  0  0  0  0  0  0  0  0
   -3.9618    1.5388    1.0175 H   0  0  0  0  0  0  0  0  0  0  0  0
   -3.1091   -2.8058   -1.2207 H   0  0  0  0  0  0  0  0  0  0  0  0
   -5.8249   -0.0054    0.5806 H   0  0  0  0  0  0  0  0  0  0  0  0
   -5.4102   -2.1805   -0.5380 H   0  0  0  0  0  0  0  0  0  0  0  0
  1  8  2  0  0  0  0
  2  3  1  0  0  0  0
  2  5  1  0  0  0  0
  2  9  2  0  0  0  0
  3  6  1  0  0  0  0
  3 10  2  0  0  0  0
  4  5  2  0  0  0  0
  4  7  1  0  0  0  0
  4  8  1  0  0  0  0
  5 19  1  0  0  0  0
  6  7  2  0  0  0  0
  6 20  1  0  0  0  0
  7 21  1  0  0  0  0
  8 11  1  0  0  0  0
  9 12  1  0  0  0  0
  9 22  1  0  0  0  0
 10 13  1  0  0  0  0
 10 23  1  0  0  0  0
 11 14  2  0  0  0  0
 11 15  1  0  0  0  0
 12 13  2  0  0  0  0
 12 24  1  0  0  0  0
 13 25  1  0  0  0  0
 14 16  1  0  0  0  0
 14 26  1  0  0  0  0
 15 17  2  0  0  0  0
 15 27  1  0  0  0  0
 16 18  2  0  0  0  0
 16 28  1  0  0  0  0
 17 18  1  0  0  0  0
 17 29  1  0  0  0  0
 18 30  1  0  0  0  0
M  END
> <PUBCHEM_COMPOUND_CID>
69516

> <PUBCHEM_CONFORMER_RMSD>
0.6

> <PUBCHEM_CONFORMER_DIVERSEORDER>
2
1

> <PUBCHEM_MMFF94_PARTIAL_CHARGES>
28
1 -0.57
10 -0.15
11 0.09
12 -0.15
13 -0.15
14 -0.15
15 -0.15
16 -0.15
17 -0.15
18 -0.15
19 0.15
20 0.15
21 0.15
22 0.15
23 0.15
24 0.15
25 0.15
26 0.15
27 0.15
28 0.15
29 0.15
30 0.15
4 0.09
5 -0.15
6 -0.15
7 -0.15
8 0.4
9 -0.15

> <PUBCHEM_EFFECTIVE_ROTOR_COUNT>
2

> <PUBCHEM_PHARMACOPHORE_FEATURES>
4
1 1 acceptor
6 11 14 15 16 17 18 rings
6 2 3 4 5 6 7 rings
6 2 3 9 10 12 13 rings

> <PUBCHEM_HEAVY_ATOM_COUNT>
18

> <PUBCHEM_ATOM_DEF_STEREO_COUNT>
0

> <PUBCHEM_ATOM_UDEF_STEREO_COUNT>
0

> <PUBCHEM_BOND_DEF_STEREO_COUNT>
0

> <PUBCHEM_BOND_UDEF_STEREO_COUNT>
0

> <PUBCHEM_ISOTOPIC_ATOM_COUNT>
0

> <PUBCHEM_COMPONENT_COUNT>
1

> <PUBCHEM_CACTVS_TAUTO_COUNT>
1

> <PUBCHEM_CONFORMER_ID>
00010F8C00000002

> <PUBCHEM_MMFF94_ENERGY>
63.463

> <PUBCHEM_FEATURE_SELFOVERLAP>
20.324

> <PUBCHEM_SHAPE_FINGERPRINT>
10062212 137 18408885153088592147
11046707 91 18412824694444369899
11370993 144 15697733523002498711
11370993 70 14836406947446936519
11471102 20 16732708255229782268
11578080 2 18116689933169561997
11796584 16 18411982459879403023
12236239 1 18260553315859582549
12553582 1 18411133654140365467
12633257 1 16343702183462590139
12730499 353 14273452561867281529
13167823 11 18334297565024178974
13288520 33 18343304751462622382
13583140 156 17487880243030195440
13675066 3 16415760816655393000
14115302 16 18261678168063501751
14252887 29 15841561760081437380
14386348 63 17060625490173717719
14576447 43 17967813868651062810
15375358 24 16415200057441182757
15653759 3 17346880026882315488
16752209 62 18338222792124708889
17349148 13 17530678797529073152
17357779 13 16008746900988871430
17804303 29 18131068255721000587
17977361 122 18410569591832995703
1798214 20 18040149630150454327
1813 80 18186525375699826150
18186145 218 14779543483102531693
18915474 69 18261394498084365199
19049666 15 16485304824048996581
19862831 5 17675924308900701259
200 152 17675924279010120288
20279233 1 16630531738992773495
204376 136 13542459886390275276
20645477 70 16298386821373088930
21033648 29 15625932084950810154
221357 26 16226037904024872943
22646028 1 18334012791486191690
22646028 28 18335138704378344871
22854114 59 14620794903077449591
232386 152 18271242819766110439
23366157 5 18050846912401764377
23402539 116 18334574624779745196
23557571 272 17489038045453608960
23559900 14 17702678652652128124
26918003 58 16272210786404819355
3004659 81 18335139816848695399
351380 3 18334295374781151971
4325135 7 18340764932054729432
46194498 28 15213308572528758703
465052 167 18193288601363053179
474 4 17824834587888283684
4990 188 14923941266972542961
5104073 3 17915748768088252059
5281201 14 15140960647143674190
573450 72 18412546496522509289
5902787 121 18201999983990544481
59682541 52 16516782859096263927
602551 16 18059857272530369366
67856867 119 18338517577015835036
7471813 234 18113338613491119948
77492 1 18260557709653525757
7808743 9 10953722397122710223
9981440 41 17179694061141649376

> <PUBCHEM_SHAPE_MULTIPOLES>
364.56
10.04
1.6
1.3
1.32
0.08
0.06
-4.79
0.11
0.77
0.01
-0.71
0.11
-1.53

> <PUBCHEM_SHAPE_SELFOVERLAP>
815.219

> <PUBCHEM_SHAPE_VOLUME>
193.6

> <PUBCHEM_COORDINATE_TYPE>
2
5
10

$$$$
