6951558
  -OEChem-11232109013D

 26 26  0     1  0  0  0  0  0999 V2000
    0.9351    1.7822    0.2244 O   0  0  0  0  0  0  0  0  0  0  0  0
   -0.3160   -1.6222    0.1053 N   0  0  0  0  0  0  0  0  0  0  0  0
    2.0778   -0.1897   -0.1845 N   0  0  0  0  0  0  0  0  0  0  0  0
   -1.5504    0.4119    0.5378 C   0  0  2  0  0  0  0  0  0  0  0  0
   -2.6264    0.2089   -0.5483 C   0  0  0  0  0  0  0  0  0  0  0  0
   -0.2422   -0.2947    0.2265 C   0  0  0  0  0  0  0  0  0  0  0  0
   -2.0930   -0.0350    1.9008 C   0  0  0  0  0  0  0  0  0  0  0  0
   -2.1729    0.6602   -1.9314 C   0  0  0  0  0  0  0  0  0  0  0  0
    0.9087    0.4223    0.0901 C   0  0  0  0  0  0  0  0  0  0  0  0
    0.8531   -2.2341   -0.1691 C   0  0  0  0  0  0  0  0  0  0  0  0
    2.0288   -1.5306   -0.3114 C   0  0  0  0  0  0  0  0  0  0  0  0
    2.1974    2.4209    0.0597 C   0  0  0  0  0  0  0  0  0  0  0  0
   -1.3812    1.4933    0.6138 H   0  0  0  0  0  0  0  0  0  0  0  0
   -3.5271    0.7719   -0.2737 H   0  0  0  0  0  0  0  0  0  0  0  0
   -2.9196   -0.8470   -0.6027 H   0  0  0  0  0  0  0  0  0  0  0  0
   -1.3534    0.1362    2.6911 H   0  0  0  0  0  0  0  0  0  0  0  0
   -2.9970    0.5261    2.1611 H   0  0  0  0  0  0  0  0  0  0  0  0
   -2.3468   -1.1010    1.9069 H   0  0  0  0  0  0  0  0  0  0  0  0
   -3.0014    0.5759   -2.6421 H   0  0  0  0  0  0  0  0  0  0  0  0
   -1.8466    1.7049   -1.9154 H   0  0  0  0  0  0  0  0  0  0  0  0
   -1.3506    0.0452   -2.3092 H   0  0  0  0  0  0  0  0  0  0  0  0
    0.8145   -3.3116   -0.2715 H   0  0  0  0  0  0  0  0  0  0  0  0
    2.9677   -2.0230   -0.5320 H   0  0  0  0  0  0  0  0  0  0  0  0
    2.0501    3.4963    0.1963 H   0  0  0  0  0  0  0  0  0  0  0  0
    2.5899    2.2590   -0.9497 H   0  0  0  0  0  0  0  0  0  0  0  0
    2.9115    2.0789    0.8163 H   0  0  0  0  0  0  0  0  0  0  0  0
  1  9  1  0  0  0  0
  1 12  1  0  0  0  0
  2  6  2  0  0  0  0
  2 10  1  0  0  0  0
  3  9  2  0  0  0  0
  3 11  1  0  0  0  0
  4  5  1  0  0  0  0
  4  6  1  0  0  0  0
  4  7  1  0  0  0  0
  4 13  1  0  0  0  0
  5  8  1  0  0  0  0
  5 14  1  0  0  0  0
  5 15  1  0  0  0  0
  6  9  1  0  0  0  0
  7 16  1  0  0  0  0
  7 17  1  0  0  0  0
  7 18  1  0  0  0  0
  8 19  1  0  0  0  0
  8 20  1  0  0  0  0
  8 21  1  0  0  0  0
 10 11  2  0  0  0  0
 10 22  1  0  0  0  0
 11 23  1  0  0  0  0
 12 24  1  0  0  0  0
 12 25  1  0  0  0  0
 12 26  1  0  0  0  0
M  END
> <PUBCHEM_COMPOUND_CID>
6951558

> <PUBCHEM_CONFORMER_RMSD>
0.6

> <PUBCHEM_CONFORMER_DIVERSEORDER>
1
10
6
2
9
8
5
4
3
7

> <PUBCHEM_MMFF94_PARTIAL_CHARGES>
11
1 -0.36
10 0.16
11 0.16
12 0.28
2 -0.62
22 0.15
23 0.15
3 -0.62
4 0.14
6 0.17
9 0.39

> <PUBCHEM_EFFECTIVE_ROTOR_COUNT>
3

> <PUBCHEM_PHARMACOPHORE_FEATURES>
4
1 2 acceptor
1 7 hydrophobe
1 8 hydrophobe
6 2 3 6 9 10 11 rings

> <PUBCHEM_HEAVY_ATOM_COUNT>
12

> <PUBCHEM_ATOM_DEF_STEREO_COUNT>
1

> <PUBCHEM_ATOM_UDEF_STEREO_COUNT>
0

> <PUBCHEM_BOND_DEF_STEREO_COUNT>
0

> <PUBCHEM_BOND_UDEF_STEREO_COUNT>
0

> <PUBCHEM_ISOTOPIC_ATOM_COUNT>
0

> <PUBCHEM_COMPONENT_COUNT>
1

> <PUBCHEM_CACTVS_TAUTO_COUNT>
2

> <PUBCHEM_CONFORMER_ID>
006A128600000001

> <PUBCHEM_MMFF94_ENERGY>
31.4843

> <PUBCHEM_FEATURE_SELFOVERLAP>
20.297

> <PUBCHEM_SHAPE_FINGERPRINT>
12423570 1 10772030548336439906
13898156 1 17131835335193084785
14128692 85 17559368332752086775
14614273 12 17761205914017055100
14817 1 7844208083645243109
16945 1 18340214002828578762
21061003 4 18120397391898827474
21930827 45 16878228554636022233
21947302 44 18042945645555195437
228727 97 17417530357927502905
23211744 41 17749934644475048841
25610 171 16660368095177672301
2748010 2 18195255635637289886
5084963 1 18131627876742458011
63268167 104 18342735182890679854
81228 2 17328868690906042320

> <PUBCHEM_SHAPE_MULTIPOLES>
231.12
3.52
2.23
1.32
0.82
0.31
0.02
0.72
0.44
-2.1
0.08
1.45
0.16
0.45

> <PUBCHEM_SHAPE_SELFOVERLAP>
464.53

> <PUBCHEM_SHAPE_VOLUME>
137

> <PUBCHEM_COORDINATE_TYPE>
2
5
10

$$$$
