6951713
  -OEChem-11232108423D

 30 30  0     1  0  0  0  0  0999 V2000
    2.8267    1.0724   -0.8518 S   0  0  0  0  0  0  0  0  0  0  0  0
    0.4112    2.0154    0.3622 O   0  0  0  0  0  0  0  0  0  0  0  0
    0.4735   -0.2714   -0.4383 C   0  0  2  0  0  0  0  0  0  0  0  0
   -0.2928   -1.4426    0.1820 C   0  0  0  0  0  0  0  0  0  0  0  0
   -2.4191   -0.0820    0.2830 C   0  0  1  0  0  0  0  0  0  0  0  0
   -1.7795   -1.4010   -0.1719 C   0  0  0  0  0  0  0  0  0  0  0  0
    1.9365   -0.2943   -0.0069 C   0  0  0  0  0  0  0  0  0  0  0  0
   -1.6945    1.1166   -0.3319 C   0  0  0  0  0  0  0  0  0  0  0  0
   -0.2075    1.0386   -0.0577 C   0  0  0  0  0  0  0  0  0  0  0  0
   -3.9037   -0.0516   -0.0733 C   0  0  0  0  0  0  0  0  0  0  0  0
    2.5950   -1.6217   -0.4021 C   0  0  0  0  0  0  0  0  0  0  0  0
    2.0539   -0.0784    1.5067 C   0  0  0  0  0  0  0  0  0  0  0  0
    0.4030   -0.3527   -1.5326 H   0  0  0  0  0  0  0  0  0  0  0  0
   -0.2218   -1.4448    1.2744 H   0  0  0  0  0  0  0  0  0  0  0  0
    0.0967   -2.4020   -0.1735 H   0  0  0  0  0  0  0  0  0  0  0  0
   -2.3297   -0.0188    1.3760 H   0  0  0  0  0  0  0  0  0  0  0  0
   -1.9024   -1.5272   -1.2551 H   0  0  0  0  0  0  0  0  0  0  0  0
   -2.2878   -2.2465    0.3072 H   0  0  0  0  0  0  0  0  0  0  0  0
   -2.0822    2.0496    0.0924 H   0  0  0  0  0  0  0  0  0  0  0  0
   -1.8347    1.1567   -1.4181 H   0  0  0  0  0  0  0  0  0  0  0  0
   -4.0552   -0.1172   -1.1562 H   0  0  0  0  0  0  0  0  0  0  0  0
   -4.4324   -0.8890    0.3939 H   0  0  0  0  0  0  0  0  0  0  0  0
   -4.3682    0.8758    0.2781 H   0  0  0  0  0  0  0  0  0  0  0  0
    3.6795   -1.5927   -0.2377 H   0  0  0  0  0  0  0  0  0  0  0  0
    2.2258   -2.4615    0.1961 H   0  0  0  0  0  0  0  0  0  0  0  0
    2.4255   -1.8610   -1.4584 H   0  0  0  0  0  0  0  0  0  0  0  0
    1.5952    0.8325    1.8954 H   0  0  0  0  0  0  0  0  0  0  0  0
    3.1117   -0.0359    1.8008 H   0  0  0  0  0  0  0  0  0  0  0  0
    1.6377   -0.9168    2.0748 H   0  0  0  0  0  0  0  0  0  0  0  0
    2.6017    0.6563   -2.1069 H   0  0  0  0  0  0  0  0  0  0  0  0
  1  7  1  0  0  0  0
  1 30  1  0  0  0  0
  2  9  2  0  0  0  0
  3  4  1  0  0  0  0
  3  7  1  0  0  0  0
  3  9  1  0  0  0  0
  3 13  1  0  0  0  0
  4  6  1  0  0  0  0
  4 14  1  0  0  0  0
  4 15  1  0  0  0  0
  5  6  1  0  0  0  0
  5  8  1  0  0  0  0
  5 10  1  0  0  0  0
  5 16  1  0  0  0  0
  6 17  1  0  0  0  0
  6 18  1  0  0  0  0
  7 11  1  0  0  0  0
  7 12  1  0  0  0  0
  8  9  1  0  0  0  0
  8 19  1  0  0  0  0
  8 20  1  0  0  0  0
 10 21  1  0  0  0  0
 10 22  1  0  0  0  0
 10 23  1  0  0  0  0
 11 24  1  0  0  0  0
 11 25  1  0  0  0  0
 11 26  1  0  0  0  0
 12 27  1  0  0  0  0
 12 28  1  0  0  0  0
 12 29  1  0  0  0  0
M  END
> <PUBCHEM_COMPOUND_CID>
6951713

> <PUBCHEM_CONFORMER_RMSD>
0.6

> <PUBCHEM_CONFORMER_DIVERSEORDER>
1
4
2
5
3
6

> <PUBCHEM_MMFF94_PARTIAL_CHARGES>
7
1 -0.41
2 -0.57
3 0.06
30 0.18
7 0.23
8 0.06
9 0.45

> <PUBCHEM_EFFECTIVE_ROTOR_COUNT>
2

> <PUBCHEM_PHARMACOPHORE_FEATURES>
3
1 2 acceptor
3 7 11 12 hydrophobe
6 3 4 5 6 8 9 rings

> <PUBCHEM_HEAVY_ATOM_COUNT>
12

> <PUBCHEM_ATOM_DEF_STEREO_COUNT>
2

> <PUBCHEM_ATOM_UDEF_STEREO_COUNT>
0

> <PUBCHEM_BOND_DEF_STEREO_COUNT>
0

> <PUBCHEM_BOND_UDEF_STEREO_COUNT>
0

> <PUBCHEM_ISOTOPIC_ATOM_COUNT>
0

> <PUBCHEM_COMPONENT_COUNT>
1

> <PUBCHEM_CACTVS_TAUTO_COUNT>
3

> <PUBCHEM_CONFORMER_ID>
006A132100000001

> <PUBCHEM_MMFF94_ENERGY>
32.7042

> <PUBCHEM_FEATURE_SELFOVERLAP>
15.223

> <PUBCHEM_SHAPE_FINGERPRINT>
10130415 120 18334573525305151211
10219947 1 18342742901295193839
10857977 72 18340476811914220945
11132069 177 18411975896947386778
12032990 46 18339086999352712735
12524768 44 18409165553706001623
12932764 1 17489866046565379295
14325111 11 18408888416957515789
14993402 34 18342461464909736167
15310529 11 16950557787917018773
15775835 57 18261678163652405573
16945 1 18341889740195782005
18186145 218 17530966856532275719
193761 8 17762339519274568231
20201158 50 18411702088387274070
21501502 16 18193552487598808519
23235685 24 18413388756488443733
23402655 69 18412818080711783669
23463225 33 18337391534915680903
23552423 10 18261394403800825982
23559900 14 18127126378267212046
2748010 2 18195523684414325653
3286 77 17346309350108817787
369184 2 16988552498889069027
5084963 1 18270963414779104474
528886 8 18340490061956900718
53812653 166 18270680994941438736
63268167 104 18411425033195460337
7364860 26 18412546518292654012

> <PUBCHEM_SHAPE_MULTIPOLES>
244.93
4.97
1.75
0.94
2.39
0.07
-0.23
-0.21
0.42
-0.47
0.12
-0.59
0.03
-0.09

> <PUBCHEM_SHAPE_SELFOVERLAP>
476.862

> <PUBCHEM_SHAPE_VOLUME>
151.2

> <PUBCHEM_COORDINATE_TYPE>
2
5
10

$$$$
