6951712
  -OEChem-11232109413D

 30 30  0     1  0  0  0  0  0999 V2000
    2.7750    1.7236   -0.4611 S   0  0  0  0  0  0  0  0  0  0  0  0
    0.3080   -2.0982    0.2574 O   0  0  0  0  0  0  0  0  0  0  0  0
    0.4848    0.2175   -0.4359 C   0  0  1  0  0  0  0  0  0  0  0  0
   -0.2175    1.3953    0.2448 C   0  0  0  0  0  0  0  0  0  0  0  0
   -2.4106    0.1419    0.2946 C   0  0  2  0  0  0  0  0  0  0  0  0
   -1.7059    1.4468   -0.1012 C   0  0  0  0  0  0  0  0  0  0  0  0
    1.9489    0.1449   -0.0143 C   0  0  0  0  0  0  0  0  0  0  0  0
   -1.7512   -1.0613   -0.3817 C   0  0  0  0  0  0  0  0  0  0  0  0
   -0.2612   -1.0725   -0.1134 C   0  0  0  0  0  0  0  0  0  0  0  0
   -3.8964    0.2046   -0.0524 C   0  0  0  0  0  0  0  0  0  0  0  0
    2.6637   -1.0010   -0.7406 C   0  0  0  0  0  0  0  0  0  0  0  0
    2.0625   -0.0416    1.5035 C   0  0  0  0  0  0  0  0  0  0  0  0
    0.4148    0.3389   -1.5265 H   0  0  0  0  0  0  0  0  0  0  0  0
    0.2061    2.3599   -0.0502 H   0  0  0  0  0  0  0  0  0  0  0  0
   -0.1527    1.3316    1.3361 H   0  0  0  0  0  0  0  0  0  0  0  0
   -2.3200    0.0217    1.3828 H   0  0  0  0  0  0  0  0  0  0  0  0
   -2.1686    2.2927    0.4216 H   0  0  0  0  0  0  0  0  0  0  0  0
   -1.8266    1.6315   -1.1762 H   0  0  0  0  0  0  0  0  0  0  0  0
   -1.8977   -1.0419   -1.4677 H   0  0  0  0  0  0  0  0  0  0  0  0
   -2.1848   -1.9926   -0.0001 H   0  0  0  0  0  0  0  0  0  0  0  0
   -4.4064   -0.7136    0.2576 H   0  0  0  0  0  0  0  0  0  0  0  0
   -4.3794    1.0445    0.4581 H   0  0  0  0  0  0  0  0  0  0  0  0
   -4.0492    0.3301   -1.1297 H   0  0  0  0  0  0  0  0  0  0  0  0
    3.7540   -0.9001   -0.6587 H   0  0  0  0  0  0  0  0  0  0  0  0
    2.4502   -1.9912   -0.3320 H   0  0  0  0  0  0  0  0  0  0  0  0
    2.4216   -1.0164   -1.8098 H   0  0  0  0  0  0  0  0  0  0  0  0
    1.7455    0.8382    2.0736 H   0  0  0  0  0  0  0  0  0  0  0  0
    3.1092   -0.2197    1.7850 H   0  0  0  0  0  0  0  0  0  0  0  0
    1.5031   -0.8969    1.8901 H   0  0  0  0  0  0  0  0  0  0  0  0
    3.9821    1.4205    0.0390 H   0  0  0  0  0  0  0  0  0  0  0  0
  1  7  1  0  0  0  0
  1 30  1  0  0  0  0
  2  9  2  0  0  0  0
  3  4  1  0  0  0  0
  3  7  1  0  0  0  0
  3  9  1  0  0  0  0
  3 13  1  0  0  0  0
  4  6  1  0  0  0  0
  4 14  1  0  0  0  0
  4 15  1  0  0  0  0
  5  6  1  0  0  0  0
  5  8  1  0  0  0  0
  5 10  1  0  0  0  0
  5 16  1  0  0  0  0
  6 17  1  0  0  0  0
  6 18  1  0  0  0  0
  7 11  1  0  0  0  0
  7 12  1  0  0  0  0
  8  9  1  0  0  0  0
  8 19  1  0  0  0  0
  8 20  1  0  0  0  0
 10 21  1  0  0  0  0
 10 22  1  0  0  0  0
 10 23  1  0  0  0  0
 11 24  1  0  0  0  0
 11 25  1  0  0  0  0
 11 26  1  0  0  0  0
 12 27  1  0  0  0  0
 12 28  1  0  0  0  0
 12 29  1  0  0  0  0
M  END
> <PUBCHEM_COMPOUND_CID>
6951712

> <PUBCHEM_CONFORMER_RMSD>
0.6

> <PUBCHEM_CONFORMER_DIVERSEORDER>
2
5
1
4
6
3

> <PUBCHEM_MMFF94_PARTIAL_CHARGES>
7
1 -0.41
2 -0.57
3 0.06
30 0.18
7 0.23
8 0.06
9 0.45

> <PUBCHEM_EFFECTIVE_ROTOR_COUNT>
2

> <PUBCHEM_PHARMACOPHORE_FEATURES>
3
1 2 acceptor
3 7 11 12 hydrophobe
6 3 4 5 6 8 9 rings

> <PUBCHEM_HEAVY_ATOM_COUNT>
12

> <PUBCHEM_ATOM_DEF_STEREO_COUNT>
2

> <PUBCHEM_ATOM_UDEF_STEREO_COUNT>
0

> <PUBCHEM_BOND_DEF_STEREO_COUNT>
0

> <PUBCHEM_BOND_UDEF_STEREO_COUNT>
0

> <PUBCHEM_ISOTOPIC_ATOM_COUNT>
0

> <PUBCHEM_COMPONENT_COUNT>
1

> <PUBCHEM_CACTVS_TAUTO_COUNT>
3

> <PUBCHEM_CONFORMER_ID>
006A132000000002

> <PUBCHEM_MMFF94_ENERGY>
32.6772

> <PUBCHEM_FEATURE_SELFOVERLAP>
15.223

> <PUBCHEM_SHAPE_FINGERPRINT>
10219947 1 18335143094130268541
10857977 72 18411975871451941681
11132069 177 18342450478151407681
12032990 46 18412272726780580599
12423570 1 11894483203048177968
12524768 44 18338236075915275564
12932764 1 17385720287976154637
13380535 76 18340207504933222732
13380536 305 18336273379124718070
14325111 11 18411140242483105917
14993402 34 18261117382525684644
15775835 57 18412267267560597241
16945 1 18335978666916421711
18186145 218 18335140886306075645
193761 8 17690564078791783973
20645476 183 17749965469123146590
21040471 1 18412822503789554762
21501502 16 18270397316820435638
22802520 49 18199211588258791390
230 275 18341321206642438194
23235685 24 18411698811348274277
23402539 116 18341322392507157732
23463225 33 18335416824911588530
23552423 10 18409449163424032622
23559900 14 18272655680040487908
241688 4 17544195978352719626
2748010 2 18338804540606737423
3286 77 17060052614524410521
369184 2 17167854270914415569
449060 62 18342742884315719785
5084963 1 18201723903365968552
528862 383 18113896099892367952
528886 8 18411701023235176746
581208 293 18341606019077717693
63268167 104 18271531974007326281
7364860 26 18343022199045284356

> <PUBCHEM_SHAPE_MULTIPOLES>
244.93
4.96
1.79
0.92
2.27
0.08
0.24
-0.94
-0.29
-0.5
-0.14
-0.54
0.04
-0.12

> <PUBCHEM_SHAPE_SELFOVERLAP>
476.619

> <PUBCHEM_SHAPE_VOLUME>
151.4

> <PUBCHEM_COORDINATE_TYPE>
2
5
10

$$$$
