6951715
  -OEChem-11232109203D

 25 24  0     1  0  0  0  0  0999 V2000
    0.0417    1.5418    0.8357 S   0  0  0  0  0  0  0  0  0  0  0  0
    3.6761   -0.7801   -0.3604 O   0  0  0  0  0  0  0  0  0  0  0  0
    0.0170   -0.2529    0.4687 C   0  0  1  0  0  0  0  0  0  0  0  0
   -1.2797   -0.6492   -0.2648 C   0  0  0  0  0  0  0  0  0  0  0  0
    1.2821   -0.6936   -0.2834 C   0  0  0  0  0  0  0  0  0  0  0  0
   -2.5916   -0.2669    0.4301 C   0  0  0  0  0  0  0  0  0  0  0  0
    2.5828   -0.3006    0.4131 C   0  0  0  0  0  0  0  0  0  0  0  0
   -3.7961   -0.7393   -0.3722 C   0  0  0  0  0  0  0  0  0  0  0  0
    0.0675    2.1408   -0.8669 C   0  0  0  0  0  0  0  0  0  0  0  0
    0.0141   -0.7524    1.4454 H   0  0  0  0  0  0  0  0  0  0  0  0
   -1.2784   -0.2614   -1.2901 H   0  0  0  0  0  0  0  0  0  0  0  0
   -1.2688   -1.7425   -0.3789 H   0  0  0  0  0  0  0  0  0  0  0  0
    1.2665   -1.7876   -0.3853 H   0  0  0  0  0  0  0  0  0  0  0  0
    1.2844   -0.3307   -1.3181 H   0  0  0  0  0  0  0  0  0  0  0  0
   -2.6740    0.8176    0.5508 H   0  0  0  0  0  0  0  0  0  0  0  0
   -2.6238   -0.7127    1.4308 H   0  0  0  0  0  0  0  0  0  0  0  0
    2.6457   -0.7526    1.4076 H   0  0  0  0  0  0  0  0  0  0  0  0
    2.7100    0.7799    0.5124 H   0  0  0  0  0  0  0  0  0  0  0  0
   -4.7235   -0.4631    0.1392 H   0  0  0  0  0  0  0  0  0  0  0  0
   -3.7858   -1.8273   -0.4920 H   0  0  0  0  0  0  0  0  0  0  0  0
   -3.8080   -0.2832   -1.3673 H   0  0  0  0  0  0  0  0  0  0  0  0
    0.9656    1.8259   -1.4015 H   0  0  0  0  0  0  0  0  0  0  0  0
    0.0835    3.2348   -0.8361 H   0  0  0  0  0  0  0  0  0  0  0  0
   -0.8285    1.8524   -1.4193 H   0  0  0  0  0  0  0  0  0  0  0  0
    3.6308   -0.3497   -1.2313 H   0  0  0  0  0  0  0  0  0  0  0  0
  1  3  1  0  0  0  0
  1  9  1  0  0  0  0
  2  7  1  0  0  0  0
  2 25  1  0  0  0  0
  3  4  1  0  0  0  0
  3  5  1  0  0  0  0
  3 10  1  0  0  0  0
  4  6  1  0  0  0  0
  4 11  1  0  0  0  0
  4 12  1  0  0  0  0
  5  7  1  0  0  0  0
  5 13  1  0  0  0  0
  5 14  1  0  0  0  0
  6  8  1  0  0  0  0
  6 15  1  0  0  0  0
  6 16  1  0  0  0  0
  7 17  1  0  0  0  0
  7 18  1  0  0  0  0
  8 19  1  0  0  0  0
  8 20  1  0  0  0  0
  8 21  1  0  0  0  0
  9 22  1  0  0  0  0
  9 23  1  0  0  0  0
  9 24  1  0  0  0  0
M  END
> <PUBCHEM_COMPOUND_CID>
6951715

> <PUBCHEM_CONFORMER_RMSD>
0.6

> <PUBCHEM_CONFORMER_DIVERSEORDER>
5
25
33
41
37
4
31
43
18
27
12
42
21
44
36
40
38
32
11
6
23
19
39
34
20
28
10
26
35
15
8
16
30
2
29
14
13
3
22
17
1
24
7
9

> <PUBCHEM_MMFF94_PARTIAL_CHARGES>
6
1 -0.46
2 -0.68
25 0.4
3 0.23
7 0.28
9 0.23

> <PUBCHEM_EFFECTIVE_ROTOR_COUNT>
5

> <PUBCHEM_PHARMACOPHORE_FEATURES>
6
1 2 acceptor
1 2 donor
1 8 hydrophobe
1 9 hydrophobe
3 1 3 5 hydrophobe
5 1 3 4 5 6 hydrophobe

> <PUBCHEM_HEAVY_ATOM_COUNT>
9

> <PUBCHEM_ATOM_DEF_STEREO_COUNT>
1

> <PUBCHEM_ATOM_UDEF_STEREO_COUNT>
0

> <PUBCHEM_BOND_DEF_STEREO_COUNT>
0

> <PUBCHEM_BOND_UDEF_STEREO_COUNT>
0

> <PUBCHEM_ISOTOPIC_ATOM_COUNT>
0

> <PUBCHEM_COMPONENT_COUNT>
1

> <PUBCHEM_CACTVS_TAUTO_COUNT>
1

> <PUBCHEM_CONFORMER_ID>
006A132300000005

> <PUBCHEM_MMFF94_ENERGY>
10.7877

> <PUBCHEM_FEATURE_SELFOVERLAP>
34.289

> <PUBCHEM_SHAPE_FINGERPRINT>
10219947 1 18131351933610011847
11062470 55 17095525093093616466
12932741 1 17386845191988726339
12932764 1 16661188374144486059
14128692 85 18342741861770605481
14993402 34 18343585174167207367
20653085 51 12757447037037257358
20711985 327 18201726166813778989
20711985 344 18189609436901302865
29004967 10 18409732867425453539

> <PUBCHEM_SHAPE_MULTIPOLES>
183.2
5.18
1.68
0.9
0.95
1.29
-0.01
-2.91
0.51
-0.29
0.27
0
0.29
-0.01

> <PUBCHEM_SHAPE_SELFOVERLAP>
311.308

> <PUBCHEM_SHAPE_VOLUME>
124.5

> <PUBCHEM_COORDINATE_TYPE>
2
5
10

$$$$
