69523
  -OEChem-11232109263D

 20 20  0     0  0  0  0  0  0999 V2000
   -0.1788   -1.0919   -0.0004 N   0  0  0  0  0  0  0  0  0  0  0  0
    1.7144    0.4181    0.0002 C   0  0  0  0  0  0  0  0  0  0  0  0
    0.2388    0.1939   -0.0002 C   0  0  0  0  0  0  0  0  0  0  0  0
    2.3950   -0.1468   -1.2604 C   0  0  0  0  0  0  0  0  0  0  0  0
    2.3946   -0.1481    1.2605 C   0  0  0  0  0  0  0  0  0  0  0  0
   -0.6137    1.2863    0.0003 C   0  0  0  0  0  0  0  0  0  0  0  0
   -1.9828    1.0434    0.0003 C   0  0  0  0  0  0  0  0  0  0  0  0
   -1.5163   -1.2889   -0.0004 C   0  0  0  0  0  0  0  0  0  0  0  0
   -2.4511   -0.2659    0.0000 C   0  0  0  0  0  0  0  0  0  0  0  0
    1.9117    1.4988    0.0008 H   0  0  0  0  0  0  0  0  0  0  0  0
    2.2934   -1.2363   -1.3176 H   0  0  0  0  0  0  0  0  0  0  0  0
    3.4635    0.0939   -1.2648 H   0  0  0  0  0  0  0  0  0  0  0  0
    1.9486    0.2785   -2.1661 H   0  0  0  0  0  0  0  0  0  0  0  0
    1.9478    0.2761    2.1665 H   0  0  0  0  0  0  0  0  0  0  0  0
    3.4629    0.0927    1.2655 H   0  0  0  0  0  0  0  0  0  0  0  0
    2.2930   -1.2376    1.3165 H   0  0  0  0  0  0  0  0  0  0  0  0
   -0.2440    2.3060    0.0006 H   0  0  0  0  0  0  0  0  0  0  0  0
   -2.6837    1.8728    0.0006 H   0  0  0  0  0  0  0  0  0  0  0  0
   -1.8297   -2.3276   -0.0006 H   0  0  0  0  0  0  0  0  0  0  0  0
   -3.5139   -0.4790    0.0000 H   0  0  0  0  0  0  0  0  0  0  0  0
  1  3  1  0  0  0  0
  1  8  2  0  0  0  0
  2  3  1  0  0  0  0
  2  4  1  0  0  0  0
  2  5  1  0  0  0  0
  2 10  1  0  0  0  0
  3  6  2  0  0  0  0
  4 11  1  0  0  0  0
  4 12  1  0  0  0  0
  4 13  1  0  0  0  0
  5 14  1  0  0  0  0
  5 15  1  0  0  0  0
  5 16  1  0  0  0  0
  6  7  1  0  0  0  0
  6 17  1  0  0  0  0
  7  9  2  0  0  0  0
  7 18  1  0  0  0  0
  8  9  1  0  0  0  0
  8 19  1  0  0  0  0
  9 20  1  0  0  0  0
M  END
> <PUBCHEM_COMPOUND_CID>
69523

> <PUBCHEM_CONFORMER_RMSD>
0.4

> <PUBCHEM_CONFORMER_DIVERSEORDER>
1
3
2

> <PUBCHEM_MMFF94_PARTIAL_CHARGES>
11
1 -0.62
17 0.15
18 0.15
19 0.15
2 0.14
20 0.15
3 0.17
6 -0.15
7 -0.15
8 0.16
9 -0.15

> <PUBCHEM_EFFECTIVE_ROTOR_COUNT>
1

> <PUBCHEM_PHARMACOPHORE_FEATURES>
3
1 1 acceptor
3 2 4 5 hydrophobe
6 1 3 6 7 8 9 rings

> <PUBCHEM_HEAVY_ATOM_COUNT>
9

> <PUBCHEM_ATOM_DEF_STEREO_COUNT>
0

> <PUBCHEM_ATOM_UDEF_STEREO_COUNT>
0

> <PUBCHEM_BOND_DEF_STEREO_COUNT>
0

> <PUBCHEM_BOND_UDEF_STEREO_COUNT>
0

> <PUBCHEM_ISOTOPIC_ATOM_COUNT>
0

> <PUBCHEM_COMPONENT_COUNT>
1

> <PUBCHEM_CACTVS_TAUTO_COUNT>
2

> <PUBCHEM_CONFORMER_ID>
00010F9300000001

> <PUBCHEM_MMFF94_ENERGY>
18.7243

> <PUBCHEM_FEATURE_SELFOVERLAP>
15.223

> <PUBCHEM_SHAPE_FINGERPRINT>
10857977 72 18271518801268691969
12716758 59 18271248213896945926
12932741 1 17703791414042969708
12932764 1 17894352185036684708
15310529 11 16732703861082645061
16714656 1 18410302410280138189
16945 1 18410573981157190181
18185500 45 18113612430187096256
20645464 45 17989477524646148890
21040471 1 18266741281501658181
23552423 10 17898292955017054541
29004967 10 16702303464070377168
369184 2 18339909480962288945
5084963 1 18130517357002790956

> <PUBCHEM_SHAPE_MULTIPOLES>
180.23
3.7
1.25
0.97
0.68
0.01
0
0.13
0
-0.64
0
0.87
0.05
0

> <PUBCHEM_SHAPE_SELFOVERLAP>
363.256

> <PUBCHEM_SHAPE_VOLUME>
106.2

> <PUBCHEM_COORDINATE_TYPE>
2
5
10

$$$$
