69669515
  -OEChem-11232108473D

 28 28  0     1  0  0  0  0  0999 V2000
   -1.5569   -0.5425   -0.4188 O   0  0  0  0  0  0  0  0  0  0  0  0
   -0.8851    1.6955   -0.1829 O   0  0  0  0  0  0  0  0  0  0  0  0
   -4.1999   -1.5807   -0.0173 O   0  0  0  0  0  0  0  0  0  0  0  0
   -2.6953    0.2719   -0.1268 C   0  0  2  0  0  0  0  0  0  0  0  0
   -2.0872    1.4723    0.5568 C   0  0  0  0  0  0  0  0  0  0  0  0
   -0.5001    0.3969   -0.6548 C   0  0  1  0  0  0  0  0  0  0  0  0
   -3.6882   -0.4862    0.7282 C   0  0  0  0  0  0  0  0  0  0  0  0
    0.7334   -0.0460    0.0508 C   0  0  0  0  0  0  0  0  0  0  0  0
    3.1322   -0.7722    0.1431 C   0  0  0  0  0  0  0  0  0  0  0  0
    1.8905   -0.3197   -0.5689 C   0  0  0  0  0  0  0  0  0  0  0  0
    4.3018    0.1751   -0.1256 C   0  0  0  0  0  0  0  0  0  0  0  0
    5.5548   -0.2643    0.6161 C   0  0  0  0  0  0  0  0  0  0  0  0
   -3.1415    0.5481   -1.0904 H   0  0  0  0  0  0  0  0  0  0  0  0
   -2.7264    2.3585    0.5243 H   0  0  0  0  0  0  0  0  0  0  0  0
   -1.8104    1.2653    1.5967 H   0  0  0  0  0  0  0  0  0  0  0  0
   -0.3450    0.4699   -1.7371 H   0  0  0  0  0  0  0  0  0  0  0  0
   -4.5229    0.1569    1.0234 H   0  0  0  0  0  0  0  0  0  0  0  0
   -3.2068   -0.8915    1.6243 H   0  0  0  0  0  0  0  0  0  0  0  0
    0.6741   -0.1455    1.1322 H   0  0  0  0  0  0  0  0  0  0  0  0
    2.9564   -0.8451    1.2233 H   0  0  0  0  0  0  0  0  0  0  0  0
    3.3857   -1.7800   -0.2073 H   0  0  0  0  0  0  0  0  0  0  0  0
    1.9512   -0.2293   -1.6507 H   0  0  0  0  0  0  0  0  0  0  0  0
    4.0402    1.1933    0.1875 H   0  0  0  0  0  0  0  0  0  0  0  0
    4.5160    0.2142   -1.2005 H   0  0  0  0  0  0  0  0  0  0  0  0
    5.3866   -0.2767    1.6977 H   0  0  0  0  0  0  0  0  0  0  0  0
    5.8635   -1.2671    0.3042 H   0  0  0  0  0  0  0  0  0  0  0  0
    6.3792    0.4251    0.4086 H   0  0  0  0  0  0  0  0  0  0  0  0
   -4.8332   -2.0457    0.5556 H   0  0  0  0  0  0  0  0  0  0  0  0
  1  4  1  0  0  0  0
  1  6  1  0  0  0  0
  2  5  1  0  0  0  0
  2  6  1  0  0  0  0
  3  7  1  0  0  0  0
  3 28  1  0  0  0  0
  4  5  1  0  0  0  0
  4  7  1  0  0  0  0
  4 13  1  0  0  0  0
  5 14  1  0  0  0  0
  5 15  1  0  0  0  0
  6  8  1  0  0  0  0
  6 16  1  0  0  0  0
  7 17  1  0  0  0  0
  7 18  1  0  0  0  0
  8 10  2  0  0  0  0
  8 19  1  0  0  0  0
  9 10  1  0  0  0  0
  9 11  1  0  0  0  0
  9 20  1  0  0  0  0
  9 21  1  0  0  0  0
 10 22  1  0  0  0  0
 11 12  1  0  0  0  0
 11 23  1  0  0  0  0
 11 24  1  0  0  0  0
 12 25  1  0  0  0  0
 12 26  1  0  0  0  0
 12 27  1  0  0  0  0
M  END
> <PUBCHEM_COMPOUND_CID>
69669515

> <PUBCHEM_CONFORMER_RMSD>
0.6

> <PUBCHEM_CONFORMER_DIVERSEORDER>
1
88
105
196
186
100
50
180
206
123
76
57
51
94
130
43
101
90
141
5
128
61
121
22
99
17
41
191
16
192
112
173
47
53
194
56
176
117
162
27
62
24
98
177
13
91
66
137
158
80
187
182
86
178
19
55
45
169
85
164
136
48
111
156
21
97
202
96
125
152
135
175
201
131
37
209
4
188
168
54
167
46
205
199
147
23
116
163
197
2
113
165
28
108
14
145
31
193
18
30
70
83
150
49
200
138
109
127
179
3
11
144
10
35
143
59
161
87
8
65
74
95
103
174
26
9
153
73
198
63
203
124
151
132
106
172
75
195
15
67
69
119
189
44
148
32
25
60
77
79
107
204
64
29
89
42
102
118
71
68
142
6
12
208
207
20
155
114
133
38
78
183
126
84
120
171
81
134
159
93
149
39
34
52
185
72
140
58
33
190
210
115
166
139
104
82
122
110
160
129
92
184
7
36
181
154
146
157
170
40

> <PUBCHEM_MMFF94_PARTIAL_CHARGES>
13
1 -0.56
10 -0.29
19 0.15
2 -0.56
22 0.15
28 0.4
3 -0.68
4 0.28
5 0.28
6 0.7
7 0.28
8 -0.29
9 0.14

> <PUBCHEM_EFFECTIVE_ROTOR_COUNT>
5

> <PUBCHEM_PHARMACOPHORE_FEATURES>
6
1 1 acceptor
1 12 hydrophobe
1 2 acceptor
1 3 acceptor
1 3 donor
5 1 2 4 5 6 rings

> <PUBCHEM_HEAVY_ATOM_COUNT>
12

> <PUBCHEM_ATOM_DEF_STEREO_COUNT>
0

> <PUBCHEM_ATOM_UDEF_STEREO_COUNT>
2

> <PUBCHEM_BOND_DEF_STEREO_COUNT>
1

> <PUBCHEM_BOND_UDEF_STEREO_COUNT>
0

> <PUBCHEM_ISOTOPIC_ATOM_COUNT>
0

> <PUBCHEM_COMPONENT_COUNT>
1

> <PUBCHEM_CACTVS_TAUTO_COUNT>
1

> <PUBCHEM_CONFORMER_ID>
0427128B00000001

> <PUBCHEM_MMFF94_ENERGY>
11.4978

> <PUBCHEM_FEATURE_SELFOVERLAP>
30.489

> <PUBCHEM_SHAPE_FINGERPRINT>
100836 57 10952058865735667299
10726558 24 8574439720386284433
12251169 10 17704354398371875759
12932764 1 16773217510418304590
13214271 11 18272930488389360613
13237642 15 18343862234381605610
13897977 58 18343868831282761732
14123238 8 18413108368644815602
14911166 2 11169912801107033199
17834072 8 8502378840977651346
17870717 6 12035730852003368456
187816 3 12829204481891882183
200 152 16588023511129301614
20645476 183 10303806571027610349
20645477 56 17203600489656463028
20645477 70 12901818390528258584
20711985 327 17530973470882288252
20724930 69 8790892882323356975
20828058 44 18411139121391029674
21119208 17 9295287244601169390
22485316 2 18187644674073109707
23380061 127 18334856086992996588
23402539 116 18334851723190244462
23402655 69 10015863185228446658
366044 4 9439407921508261509
449060 50 16845294942794063278
49783359 22 18334009476320416426

> <PUBCHEM_SHAPE_MULTIPOLES>
229.35
9.87
1.26
0.79
9.37
0.21
0.03
-2.67
2.26
-1.3
0.06
0.02
0.01
-0.08

> <PUBCHEM_SHAPE_SELFOVERLAP>
441.832

> <PUBCHEM_SHAPE_VOLUME>
140.2

> <PUBCHEM_COORDINATE_TYPE>
2
5
10

$$$$
