69694
  -OEChem-11232108463D

 23 24  0     0  0  0  0  0  0999 V2000
    1.0945    1.1052    0.1102 O   0  0  0  0  0  0  0  0  0  0  0  0
    3.3289    0.7471    0.2306 O   0  0  0  0  0  0  0  0  0  0  0  0
   -0.4295   -0.7719    0.0582 C   0  0  0  0  0  0  0  0  0  0  0  0
   -1.8162   -1.3573    0.0638 C   0  0  0  0  0  0  0  0  0  0  0  0
   -2.9114   -0.3244    0.3424 C   0  0  0  0  0  0  0  0  0  0  0  0
   -2.6540    0.9740   -0.4148 C   0  0  0  0  0  0  0  0  0  0  0  0
   -1.3003    1.5743   -0.0304 C   0  0  0  0  0  0  0  0  0  0  0  0
   -0.2026    0.5521    0.0324 C   0  0  0  0  0  0  0  0  0  0  0  0
    0.7218   -1.7255    0.0929 C   0  0  0  0  0  0  0  0  0  0  0  0
    1.9670   -1.0865   -0.4964 C   0  0  0  0  0  0  0  0  0  0  0  0
    2.2018    0.3128    0.0112 C   0  0  0  0  0  0  0  0  0  0  0  0
   -1.9987   -1.8249   -0.9117 H   0  0  0  0  0  0  0  0  0  0  0  0
   -1.8837   -2.1494    0.8189 H   0  0  0  0  0  0  0  0  0  0  0  0
   -3.8872   -0.7373    0.0627 H   0  0  0  0  0  0  0  0  0  0  0  0
   -2.9518   -0.1145    1.4189 H   0  0  0  0  0  0  0  0  0  0  0  0
   -3.4507    1.6967   -0.2057 H   0  0  0  0  0  0  0  0  0  0  0  0
   -2.6771    0.7770   -1.4943 H   0  0  0  0  0  0  0  0  0  0  0  0
   -1.3799    2.0597    0.9500 H   0  0  0  0  0  0  0  0  0  0  0  0
   -1.0412    2.3545   -0.7556 H   0  0  0  0  0  0  0  0  0  0  0  0
    0.9010   -2.0294    1.1312 H   0  0  0  0  0  0  0  0  0  0  0  0
    0.4880   -2.6311   -0.4787 H   0  0  0  0  0  0  0  0  0  0  0  0
    1.8983   -1.0342   -1.5897 H   0  0  0  0  0  0  0  0  0  0  0  0
    2.8390   -1.7015   -0.2473 H   0  0  0  0  0  0  0  0  0  0  0  0
  1  8  1  0  0  0  0
  1 11  1  0  0  0  0
  2 11  2  0  0  0  0
  3  4  1  0  0  0  0
  3  8  2  0  0  0  0
  3  9  1  0  0  0  0
  4  5  1  0  0  0  0
  4 12  1  0  0  0  0
  4 13  1  0  0  0  0
  5  6  1  0  0  0  0
  5 14  1  0  0  0  0
  5 15  1  0  0  0  0
  6  7  1  0  0  0  0
  6 16  1  0  0  0  0
  6 17  1  0  0  0  0
  7  8  1  0  0  0  0
  7 18  1  0  0  0  0
  7 19  1  0  0  0  0
  9 10  1  0  0  0  0
  9 20  1  0  0  0  0
  9 21  1  0  0  0  0
 10 11  1  0  0  0  0
 10 22  1  0  0  0  0
 10 23  1  0  0  0  0
M  END
> <PUBCHEM_COMPOUND_CID>
69694

> <PUBCHEM_CONFORMER_RMSD>
0.4

> <PUBCHEM_CONFORMER_DIVERSEORDER>
1
2

> <PUBCHEM_MMFF94_PARTIAL_CHARGES>
9
1 -0.23
10 0.06
11 0.66
2 -0.57
3 -0.28
4 0.14
7 0.14
8 -0.06
9 0.14

> <PUBCHEM_EFFECTIVE_ROTOR_COUNT>
1.4

> <PUBCHEM_PHARMACOPHORE_FEATURES>
3
1 2 acceptor
6 1 3 8 9 10 11 rings
6 3 4 5 6 7 8 rings

> <PUBCHEM_HEAVY_ATOM_COUNT>
11

> <PUBCHEM_ATOM_DEF_STEREO_COUNT>
0

> <PUBCHEM_ATOM_UDEF_STEREO_COUNT>
0

> <PUBCHEM_BOND_DEF_STEREO_COUNT>
0

> <PUBCHEM_BOND_UDEF_STEREO_COUNT>
0

> <PUBCHEM_ISOTOPIC_ATOM_COUNT>
0

> <PUBCHEM_COMPONENT_COUNT>
1

> <PUBCHEM_CACTVS_TAUTO_COUNT>
1

> <PUBCHEM_CONFORMER_ID>
0001103E00000001

> <PUBCHEM_MMFF94_ENERGY>
8.8436

> <PUBCHEM_FEATURE_SELFOVERLAP>
15.245

> <PUBCHEM_SHAPE_FINGERPRINT>
10857977 72 18335980964776607851
12423570 1 8476331379928893687
12524768 44 18268435646200254591
12897270 3 18411139099858073567
13380535 76 18410286999747861763
14325111 11 18410292493047813708
15219456 202 18412547574163694174
15775835 57 18342742922537778827
16945 1 18410578400520288791
17844478 74 18187942672284705065
19973954 147 18339083674731215693
20201158 50 18411698785694443519
20871998 184 18199473353409235935
21040471 1 18337111163798039998
21501502 16 18338795602758649891
23235685 24 18410285921737301324
23402655 69 18269259198243527597
23463225 33 18333726893204882218
23552423 10 18260835868899581751
2748010 2 18338519625250355511
369184 2 18410011022492541003
5084963 1 18272093845707554994
528886 8 18412258462867026123
53812653 166 18343016705154404504
6333449 129 18412542128340218231
66348 1 18122064200050010719
7364860 26 18197213646766655714

> <PUBCHEM_SHAPE_MULTIPOLES>
214.64
4.3
1.72
0.66
0.59
0.2
0.02
-0.7
-0.04
-0.12
0.01
-0.04
0.02
0.3

> <PUBCHEM_SHAPE_SELFOVERLAP>
446.288

> <PUBCHEM_SHAPE_VOLUME>
121.2

> <PUBCHEM_COORDINATE_TYPE>
2
5
10

$$$$
