6970
  -OEChem-11232108403D

 44 45  0     1  0  0  0  0  0999 V2000
    0.3845   -0.5641   -0.3932 O   0  0  0  0  0  0  0  0  0  0  0  0
   -0.8589   -0.1825   -2.2925 O   0  0  0  0  0  0  0  0  0  0  0  0
   -3.2114    0.9697   -1.5720 O   0  0  0  0  0  0  0  0  0  0  0  0
    2.7444   -0.1428   -0.0063 C   0  0  1  0  0  0  0  0  0  0  0  0
    1.5170    0.1497   -0.8866 C   0  0  2  0  0  0  0  0  0  0  0  0
    2.5650    0.4342    1.4061 C   0  0  0  0  0  0  0  0  0  0  0  0
    1.0221    2.2296    0.4955 C   0  0  1  0  0  0  0  0  0  0  0  0
    1.1989    1.6478   -0.9162 C   0  0  0  0  0  0  0  0  0  0  0  0
    2.2481    1.9282    1.3668 C   0  0  0  0  0  0  0  0  0  0  0  0
    3.0414   -1.6416    0.0703 C   0  0  0  0  0  0  0  0  0  0  0  0
    0.7665    3.7345    0.4287 C   0  0  0  0  0  0  0  0  0  0  0  0
    3.1861   -2.2295   -1.3305 C   0  0  0  0  0  0  0  0  0  0  0  0
    4.3005   -1.8952    0.8944 C   0  0  0  0  0  0  0  0  0  0  0  0
   -0.7688   -0.4049   -1.0950 C   0  0  0  0  0  0  0  0  0  0  0  0
   -1.9464   -0.5369   -0.2004 C   0  0  0  0  0  0  0  0  0  0  0  0
   -3.1063    0.1559   -0.4838 C   0  0  0  0  0  0  0  0  0  0  0  0
   -1.8363   -1.3621    0.9019 C   0  0  0  0  0  0  0  0  0  0  0  0
   -4.2013    0.0186    0.3693 C   0  0  0  0  0  0  0  0  0  0  0  0
   -2.9313   -1.4995    1.7549 C   0  0  0  0  0  0  0  0  0  0  0  0
   -4.1138   -0.8092    1.4886 C   0  0  0  0  0  0  0  0  0  0  0  0
    3.6061    0.3644   -0.4643 H   0  0  0  0  0  0  0  0  0  0  0  0
    1.7131   -0.1650   -1.9182 H   0  0  0  0  0  0  0  0  0  0  0  0
    3.4758    0.3186    2.0020 H   0  0  0  0  0  0  0  0  0  0  0  0
    1.7634   -0.0949    1.9366 H   0  0  0  0  0  0  0  0  0  0  0  0
    0.1440    1.7647    0.9621 H   0  0  0  0  0  0  0  0  0  0  0  0
    0.3043    1.8703   -1.5066 H   0  0  0  0  0  0  0  0  0  0  0  0
    2.0276    2.1678   -1.4159 H   0  0  0  0  0  0  0  0  0  0  0  0
    2.0761    2.2874    2.3887 H   0  0  0  0  0  0  0  0  0  0  0  0
    3.1212    2.4719    0.9832 H   0  0  0  0  0  0  0  0  0  0  0  0
    2.2147   -2.1666    0.5666 H   0  0  0  0  0  0  0  0  0  0  0  0
   -0.1298    3.9499   -0.1626 H   0  0  0  0  0  0  0  0  0  0  0  0
    0.6130    4.1469    1.4314 H   0  0  0  0  0  0  0  0  0  0  0  0
    1.6098    4.2626   -0.0293 H   0  0  0  0  0  0  0  0  0  0  0  0
    3.8979   -1.6582   -1.9362 H   0  0  0  0  0  0  0  0  0  0  0  0
    3.5504   -3.2619   -1.2795 H   0  0  0  0  0  0  0  0  0  0  0  0
    2.2293   -2.2703   -1.8597 H   0  0  0  0  0  0  0  0  0  0  0  0
    5.1386   -1.2784    0.5525 H   0  0  0  0  0  0  0  0  0  0  0  0
    4.6089   -2.9439    0.8142 H   0  0  0  0  0  0  0  0  0  0  0  0
    4.1393   -1.7071    1.9599 H   0  0  0  0  0  0  0  0  0  0  0  0
   -0.9336   -1.9225    1.1263 H   0  0  0  0  0  0  0  0  0  0  0  0
   -5.1288    0.5502    0.1743 H   0  0  0  0  0  0  0  0  0  0  0  0
   -2.8646   -2.1464    2.6248 H   0  0  0  0  0  0  0  0  0  0  0  0
   -4.9665   -0.9169    2.1525 H   0  0  0  0  0  0  0  0  0  0  0  0
   -4.1012    1.3621   -1.5907 H   0  0  0  0  0  0  0  0  0  0  0  0
  1  5  1  0  0  0  0
  1 14  1  0  0  0  0
  2 14  2  0  0  0  0
  3 16  1  0  0  0  0
  3 44  1  0  0  0  0
  4  5  1  0  0  0  0
  4  6  1  0  0  0  0
  4 10  1  0  0  0  0
  4 21  1  0  0  0  0
  5  8  1  0  0  0  0
  5 22  1  0  0  0  0
  6  9  1  0  0  0  0
  6 23  1  0  0  0  0
  6 24  1  0  0  0  0
  7  8  1  0  0  0  0
  7  9  1  0  0  0  0
  7 11  1  0  0  0  0
  7 25  1  0  0  0  0
  8 26  1  0  0  0  0
  8 27  1  0  0  0  0
  9 28  1  0  0  0  0
  9 29  1  0  0  0  0
 10 12  1  0  0  0  0
 10 13  1  0  0  0  0
 10 30  1  0  0  0  0
 11 31  1  0  0  0  0
 11 32  1  0  0  0  0
 11 33  1  0  0  0  0
 12 34  1  0  0  0  0
 12 35  1  0  0  0  0
 12 36  1  0  0  0  0
 13 37  1  0  0  0  0
 13 38  1  0  0  0  0
 13 39  1  0  0  0  0
 14 15  1  0  0  0  0
 15 16  1  0  0  0  0
 15 17  2  0  0  0  0
 16 18  2  0  0  0  0
 17 19  1  0  0  0  0
 17 40  1  0  0  0  0
 18 20  1  0  0  0  0
 18 41  1  0  0  0  0
 19 20  2  0  0  0  0
 19 42  1  0  0  0  0
 20 43  1  0  0  0  0
M  END
> <PUBCHEM_COMPOUND_CID>
6970

> <PUBCHEM_CONFORMER_RMSD>
0.8

> <PUBCHEM_CONFORMER_DIVERSEORDER>
1
35
120
34
116
13
65
59
78
46
119
114
32
113
111
98
39
42
84
94
10
27
66
118
97
24
28
69
55
90
63
36
105
80
103
99
86
109
70
30
117
60
77
50
76
5
110
2
7
25
11
108
107
104
106
37
58
89
62
48
72
101
74
73
87
3
44
38
20
100
45
14
52
8
29
92
112
102
71
75
61
57
4
67
96
41
18
9
79
21
51
115
43
6
93
81
91
53
17
49
15
26
95
88
85
47
19
16
54
122
121
64
56
40
12
33
22
31
68
23
83
82

> <PUBCHEM_MMFF94_PARTIAL_CHARGES>
16
1 -0.43
14 0.63
15 0.09
16 0.08
17 -0.15
18 -0.15
19 -0.15
2 -0.57
20 -0.15
3 -0.53
40 0.15
41 0.15
42 0.15
43 0.15
44 0.45
5 0.28

> <PUBCHEM_EFFECTIVE_ROTOR_COUNT>
5.2

> <PUBCHEM_PHARMACOPHORE_FEATURES>
5
1 2 acceptor
1 3 donor
3 10 12 13 hydrophobe
6 15 16 17 18 19 20 rings
6 4 5 6 7 8 9 rings

> <PUBCHEM_HEAVY_ATOM_COUNT>
20

> <PUBCHEM_ATOM_DEF_STEREO_COUNT>
0

> <PUBCHEM_ATOM_UDEF_STEREO_COUNT>
3

> <PUBCHEM_BOND_DEF_STEREO_COUNT>
0

> <PUBCHEM_BOND_UDEF_STEREO_COUNT>
0

> <PUBCHEM_ISOTOPIC_ATOM_COUNT>
0

> <PUBCHEM_COMPONENT_COUNT>
1

> <PUBCHEM_CACTVS_TAUTO_COUNT>
4

> <PUBCHEM_CONFORMER_ID>
00001B3A00000001

> <PUBCHEM_MMFF94_ENERGY>
53.2247

> <PUBCHEM_FEATURE_SELFOVERLAP>
25.371

> <PUBCHEM_SHAPE_FINGERPRINT>
10366900 7 18044944708039115107
10382601 240 18129940204241686936
104564 63 17981895146569351822
10764073 3 12746778295967989998
11086676 242 17918276420386317544
11640471 11 16916503803833591329
12506688 2 18260553286122216602
12507560 18 18043522820455969313
12553582 1 18272652316611804814
12633257 1 18268169642054479699
12714826 92 17458621177299406399
12760667 363 18051407375753808970
12788726 201 18194405481489875586
12824470 246 17606675821702691082
13134695 92 18343016683801101492
13533116 47 18190750915467119467
13583140 156 18198344146804739195
13965767 371 17203337705644305960
14178342 30 17912907668232592690
14223421 5 17973446791194849347
14251739 40 17704062989104408047
14289901 80 18125730225642398155
14790565 3 18053093214947753704
14866123 147 17183909064657099811
15295992 7 18410572873446375377
15653759 3 18260269667961677633
16752209 62 15864611943679990815
17357779 13 18127965322122358900
17357990 137 16916240977662791629
17804303 29 17894640240372843059
17980427 23 14117501147770713986
1813 80 17702404870188711070
18981168 100 15839326590259861327
19049666 15 18261103046151651573
20600515 1 17896316913958391732
21041028 32 18340488872441169192
21524375 3 17337592705676715116
22149856 69 15122970486496055431
23175994 123 18339083687600364822
23184049 59 17846779572466928726
23559900 14 17822577208921857215
31174 14 18265909131846384761
3286 77 18335425690204232763
3797600 57 16910619329413445411
6049 1 18113899398717167805
6786 2 17180839735430902580
6992083 37 17703779315004046270
7097593 13 18341896358703663291
7615 1 16988556952796386015
81228 2 17979073787000726380

> <PUBCHEM_SHAPE_MULTIPOLES>
393.98
7.44
2.85
1.74
3.48
2.39
0.22
-4.03
-2.15
-2.74
-0.55
0.5
-0.24
1.31

> <PUBCHEM_SHAPE_SELFOVERLAP>
820.143

> <PUBCHEM_SHAPE_VOLUME>
223.4

> <PUBCHEM_COORDINATE_TYPE>
2
5
10

$$$$
