6971248
  -OEChem-11232109203D

 16 15  0     1  0  0  0  0  0999 V2000
    1.7138   -1.2827   -0.1734 O   0  0  0  0  0  0  0  0  0  0  0  0
    0.0575    0.5035   -0.2850 C   0  0  1  0  0  0  0  0  0  0  0  0
   -1.3895    0.3415    0.1982 C   0  0  0  0  0  0  0  0  0  0  0  0
    0.5533    1.9265   -0.0382 C   0  0  0  0  0  0  0  0  0  0  0  0
   -1.9572   -1.0404   -0.1024 C   0  0  0  0  0  0  0  0  0  0  0  0
    1.0220   -0.4484    0.4008 C   0  0  0  0  0  0  0  0  0  0  0  0
    0.1040    0.2994   -1.3619 H   0  0  0  0  0  0  0  0  0  0  0  0
   -1.4465    0.5151    1.2798 H   0  0  0  0  0  0  0  0  0  0  0  0
   -2.0242    1.0947   -0.2836 H   0  0  0  0  0  0  0  0  0  0  0  0
    0.5324    2.1773    1.0284 H   0  0  0  0  0  0  0  0  0  0  0  0
   -0.0667    2.6540   -0.5723 H   0  0  0  0  0  0  0  0  0  0  0  0
    1.5864    2.0450   -0.3833 H   0  0  0  0  0  0  0  0  0  0  0  0
   -1.4041   -1.8235    0.4252 H   0  0  0  0  0  0  0  0  0  0  0  0
   -1.9194   -1.2538   -1.1754 H   0  0  0  0  0  0  0  0  0  0  0  0
   -3.0025   -1.0951    0.2176 H   0  0  0  0  0  0  0  0  0  0  0  0
    1.0740   -0.3514    1.5000 H   0  0  0  0  0  0  0  0  0  0  0  0
  1  6  2  0  0  0  0
  2  3  1  0  0  0  0
  2  4  1  0  0  0  0
  2  6  1  0  0  0  0
  2  7  1  0  0  0  0
  3  5  1  0  0  0  0
  3  8  1  0  0  0  0
  3  9  1  0  0  0  0
  4 10  1  0  0  0  0
  4 11  1  0  0  0  0
  4 12  1  0  0  0  0
  5 13  1  0  0  0  0
  5 14  1  0  0  0  0
  5 15  1  0  0  0  0
  6 16  1  0  0  0  0
M  END
> <PUBCHEM_COMPOUND_CID>
6971248

> <PUBCHEM_CONFORMER_RMSD>
0.4

> <PUBCHEM_CONFORMER_DIVERSEORDER>
1
7
6
4
9
2
3
5
8

> <PUBCHEM_MMFF94_PARTIAL_CHARGES>
4
1 -0.57
16 0.06
2 0.06
6 0.45

> <PUBCHEM_EFFECTIVE_ROTOR_COUNT>
2

> <PUBCHEM_PHARMACOPHORE_FEATURES>
3
1 1 acceptor
1 4 hydrophobe
1 5 hydrophobe

> <PUBCHEM_HEAVY_ATOM_COUNT>
6

> <PUBCHEM_ATOM_DEF_STEREO_COUNT>
1

> <PUBCHEM_ATOM_UDEF_STEREO_COUNT>
0

> <PUBCHEM_BOND_DEF_STEREO_COUNT>
0

> <PUBCHEM_BOND_UDEF_STEREO_COUNT>
0

> <PUBCHEM_ISOTOPIC_ATOM_COUNT>
0

> <PUBCHEM_COMPONENT_COUNT>
1

> <PUBCHEM_CACTVS_TAUTO_COUNT>
2

> <PUBCHEM_CONFORMER_ID>
006A5F7000000001

> <PUBCHEM_MMFF94_ENERGY>
2.9124

> <PUBCHEM_FEATURE_SELFOVERLAP>
15.223

> <PUBCHEM_SHAPE_FINGERPRINT>
139733 1 9655283843787468283
16714656 1 17977955578836725597
18185500 45 18409168770736966923
20096714 4 17907300205885437825
21040471 1 17328865911698529493
23552449 11 18116694382902360075
24536 1 18338503261778288059
29004967 10 18409446990054419458
5943 1 14035136718806978324

> <PUBCHEM_SHAPE_MULTIPOLES>
117.61
2.23
1.71
0.66
1.2
0.18
-0.02
-0.57
0.03
-0.9
0.06
0
0.01
-0.04

> <PUBCHEM_SHAPE_SELFOVERLAP>
205.7

> <PUBCHEM_SHAPE_VOLUME>
78.3

> <PUBCHEM_COORDINATE_TYPE>
2
5
10

$$$$
