69721
  -OEChem-11232109173D

 33 34  0     0  0  0  0  0  0999 V2000
    0.4562    0.7374   -1.2491 O   0  0  0  0  0  0  0  0  0  0  0  0
    0.0137    0.1464    1.0239 O   0  0  0  0  0  0  0  0  0  0  0  0
   -0.5152    0.2597   -0.3062 C   0  0  0  0  0  0  0  0  0  0  0  0
    2.2753   -0.1174    0.1380 C   0  0  0  0  0  0  0  0  0  0  0  0
   -1.1666   -1.0537   -0.7876 C   0  0  0  0  0  0  0  0  0  0  0  0
   -1.5977    1.3548   -0.2421 C   0  0  0  0  0  0  0  0  0  0  0  0
   -2.3525   -1.4681    0.0826 C   0  0  0  0  0  0  0  0  0  0  0  0
   -2.7919    0.9573    0.6241 C   0  0  0  0  0  0  0  0  0  0  0  0
    1.6589   -0.0284   -1.2671 C   0  0  0  0  0  0  0  0  0  0  0  0
    1.2012   -0.6384    1.1058 C   0  0  0  0  0  0  0  0  0  0  0  0
   -3.4003   -0.3631    0.1644 C   0  0  0  0  0  0  0  0  0  0  0  0
    3.4785   -1.0681    0.1258 C   0  0  0  0  0  0  0  0  0  0  0  0
    2.7402    1.2815    0.5875 C   0  0  0  0  0  0  0  0  0  0  0  0
   -0.4453   -1.8772   -0.7961 H   0  0  0  0  0  0  0  0  0  0  0  0
   -1.4939   -0.9370   -1.8291 H   0  0  0  0  0  0  0  0  0  0  0  0
   -1.9424    1.5969   -1.2561 H   0  0  0  0  0  0  0  0  0  0  0  0
   -1.1628    2.2794    0.1595 H   0  0  0  0  0  0  0  0  0  0  0  0
   -2.8093   -2.3753   -0.3288 H   0  0  0  0  0  0  0  0  0  0  0  0
   -2.0022   -1.7185    1.0912 H   0  0  0  0  0  0  0  0  0  0  0  0
   -2.4794    0.8721    1.6718 H   0  0  0  0  0  0  0  0  0  0  0  0
   -3.5523    1.7455    0.5845 H   0  0  0  0  0  0  0  0  0  0  0  0
    2.3496    0.4614   -1.9630 H   0  0  0  0  0  0  0  0  0  0  0  0
    1.4506   -1.0214   -1.6814 H   0  0  0  0  0  0  0  0  0  0  0  0
    0.9566   -1.6886    0.9117 H   0  0  0  0  0  0  0  0  0  0  0  0
    1.5562   -0.5886    2.1416 H   0  0  0  0  0  0  0  0  0  0  0  0
   -3.8618   -0.2265   -0.8215 H   0  0  0  0  0  0  0  0  0  0  0  0
   -4.1999   -0.6613    0.8518 H   0  0  0  0  0  0  0  0  0  0  0  0
    3.9278   -1.1499    1.1218 H   0  0  0  0  0  0  0  0  0  0  0  0
    3.1844   -2.0753   -0.1902 H   0  0  0  0  0  0  0  0  0  0  0  0
    4.2536   -0.7161   -0.5640 H   0  0  0  0  0  0  0  0  0  0  0  0
    3.1791    1.2452    1.5911 H   0  0  0  0  0  0  0  0  0  0  0  0
    3.5021    1.6789   -0.0926 H   0  0  0  0  0  0  0  0  0  0  0  0
    1.9146    2.0007    0.6145 H   0  0  0  0  0  0  0  0  0  0  0  0
  1  3  1  0  0  0  0
  1  9  1  0  0  0  0
  2  3  1  0  0  0  0
  2 10  1  0  0  0  0
  3  5  1  0  0  0  0
  3  6  1  0  0  0  0
  4  9  1  0  0  0  0
  4 10  1  0  0  0  0
  4 12  1  0  0  0  0
  4 13  1  0  0  0  0
  5  7  1  0  0  0  0
  5 14  1  0  0  0  0
  5 15  1  0  0  0  0
  6  8  1  0  0  0  0
  6 16  1  0  0  0  0
  6 17  1  0  0  0  0
  7 11  1  0  0  0  0
  7 18  1  0  0  0  0
  7 19  1  0  0  0  0
  8 11  1  0  0  0  0
  8 20  1  0  0  0  0
  8 21  1  0  0  0  0
  9 22  1  0  0  0  0
  9 23  1  0  0  0  0
 10 24  1  0  0  0  0
 10 25  1  0  0  0  0
 11 26  1  0  0  0  0
 11 27  1  0  0  0  0
 12 28  1  0  0  0  0
 12 29  1  0  0  0  0
 12 30  1  0  0  0  0
 13 31  1  0  0  0  0
 13 32  1  0  0  0  0
 13 33  1  0  0  0  0
M  END
> <PUBCHEM_COMPOUND_CID>
69721

> <PUBCHEM_CONFORMER_RMSD>
0.6

> <PUBCHEM_CONFORMER_DIVERSEORDER>
1
2

> <PUBCHEM_MMFF94_PARTIAL_CHARGES>
5
1 -0.56
10 0.28
2 -0.56
3 0.56
9 0.28

> <PUBCHEM_EFFECTIVE_ROTOR_COUNT>
2

> <PUBCHEM_PHARMACOPHORE_FEATURES>
5
1 1 acceptor
1 2 acceptor
3 4 12 13 hydrophobe
6 1 2 3 4 9 10 rings
6 3 5 6 7 8 11 rings

> <PUBCHEM_HEAVY_ATOM_COUNT>
13

> <PUBCHEM_ATOM_DEF_STEREO_COUNT>
0

> <PUBCHEM_ATOM_UDEF_STEREO_COUNT>
0

> <PUBCHEM_BOND_DEF_STEREO_COUNT>
0

> <PUBCHEM_BOND_UDEF_STEREO_COUNT>
0

> <PUBCHEM_ISOTOPIC_ATOM_COUNT>
0

> <PUBCHEM_COMPONENT_COUNT>
1

> <PUBCHEM_CACTVS_TAUTO_COUNT>
1

> <PUBCHEM_CONFORMER_ID>
0001105900000001

> <PUBCHEM_MMFF94_ENERGY>
30.7133

> <PUBCHEM_FEATURE_SELFOVERLAP>
25.408

> <PUBCHEM_SHAPE_FINGERPRINT>
11769659 78 18409161108531239066
12138202 97 17632850919740134125
12251169 10 18272646853133484738
124424 183 17560515105973114914
12932764 1 18113893827923058288
13024252 1 15140681350184477869
13581323 91 18412545392383591902
14993402 34 18113897143954328575
15219456 202 17561090189251228638
15775835 57 18408891710907385513
16945 1 18265324028108765712
17804303 29 18340212873400029006
17844478 74 17346607382532419417
19422 9 18261118477721291219
20201158 50 17203332182358541503
20361792 2 16877657967887864134
20645464 45 17632297856716999343
20871998 184 18059015115601536799
21293036 1 15502382218538361590
21501502 16 17702937166385338911
22445834 79 18187923924283297515
23402539 116 17846205619461429125
3248919 1 17346601854614129689
369184 2 18342172275981916037
5084963 1 17749108872360913276
528886 8 17095527279247515248
57812782 119 18341611490655036650
77492 1 18040442096175095013

> <PUBCHEM_SHAPE_MULTIPOLES>
255.8
5.28
1.39
1.11
0.22
0.03
-0.12
-0.47
0.82
-0.26
0.04
0.3
0.02
-0.05

> <PUBCHEM_SHAPE_SELFOVERLAP>
518.877

> <PUBCHEM_SHAPE_VOLUME>
148.7

> <PUBCHEM_COORDINATE_TYPE>
2
5
10

$$$$
