6992421
  -OEChem-11232108443D

 19 18  0     1  0  0  0  0  0999 V2000
   -0.5217   -1.6620    0.1058 O   0  0  0  0  0  0  0  0  0  0  0  0
    0.6824    0.3956    0.2790 C   0  0  0  0  0  0  0  0  0  0  0  0
    1.9497   -0.1417   -0.3876 C   0  0  0  0  0  0  0  0  0  0  0  0
   -0.6011   -0.2747   -0.2265 C   0  0  2  0  0  0  0  0  0  0  0  0
    3.1904    0.5764    0.1208 C   0  0  0  0  0  0  0  0  0  0  0  0
   -1.8416    0.2925    0.4022 C   0  0  0  0  0  0  0  0  0  0  0  0
   -2.8581    0.8139   -0.2937 C   0  0  0  0  0  0  0  0  0  0  0  0
    0.7735    0.2491    1.3638 H   0  0  0  0  0  0  0  0  0  0  0  0
    0.6168    1.4777    0.1066 H   0  0  0  0  0  0  0  0  0  0  0  0
    2.0551   -1.2149   -0.1929 H   0  0  0  0  0  0  0  0  0  0  0  0
    1.8798   -0.0139   -1.4740 H   0  0  0  0  0  0  0  0  0  0  0  0
   -0.6500   -0.2041   -1.3191 H   0  0  0  0  0  0  0  0  0  0  0  0
    3.3064    0.4424    1.2011 H   0  0  0  0  0  0  0  0  0  0  0  0
    3.1368    1.6494   -0.0892 H   0  0  0  0  0  0  0  0  0  0  0  0
    4.0852    0.1792   -0.3687 H   0  0  0  0  0  0  0  0  0  0  0  0
   -1.9144    0.2666    1.4867 H   0  0  0  0  0  0  0  0  0  0  0  0
   -0.4472   -1.7400    1.0726 H   0  0  0  0  0  0  0  0  0  0  0  0
   -3.7307    1.2047    0.2182 H   0  0  0  0  0  0  0  0  0  0  0  0
   -2.8396    0.8609   -1.3769 H   0  0  0  0  0  0  0  0  0  0  0  0
  1  4  1  0  0  0  0
  1 17  1  0  0  0  0
  2  3  1  0  0  0  0
  2  4  1  0  0  0  0
  2  8  1  0  0  0  0
  2  9  1  0  0  0  0
  3  5  1  0  0  0  0
  3 10  1  0  0  0  0
  3 11  1  0  0  0  0
  4  6  1  0  0  0  0
  4 12  1  0  0  0  0
  5 13  1  0  0  0  0
  5 14  1  0  0  0  0
  5 15  1  0  0  0  0
  6  7  2  0  0  0  0
  6 16  1  0  0  0  0
  7 18  1  0  0  0  0
  7 19  1  0  0  0  0
M  END
> <PUBCHEM_COMPOUND_CID>
6992421

> <PUBCHEM_CONFORMER_RMSD>
0.4

> <PUBCHEM_CONFORMER_DIVERSEORDER>
2
22
17
20
3
13
9
11
16
14
19
21
4
18
1
12
8
15
6
5
10
7

> <PUBCHEM_MMFF94_PARTIAL_CHARGES>
8
1 -0.68
16 0.15
17 0.4
18 0.15
19 0.15
4 0.42
6 -0.29
7 -0.3

> <PUBCHEM_EFFECTIVE_ROTOR_COUNT>
3

> <PUBCHEM_PHARMACOPHORE_FEATURES>
4
1 1 acceptor
1 1 donor
1 5 hydrophobe
1 7 hydrophobe

> <PUBCHEM_HEAVY_ATOM_COUNT>
7

> <PUBCHEM_ATOM_DEF_STEREO_COUNT>
1

> <PUBCHEM_ATOM_UDEF_STEREO_COUNT>
0

> <PUBCHEM_BOND_DEF_STEREO_COUNT>
0

> <PUBCHEM_BOND_UDEF_STEREO_COUNT>
0

> <PUBCHEM_ISOTOPIC_ATOM_COUNT>
0

> <PUBCHEM_COMPONENT_COUNT>
1

> <PUBCHEM_CACTVS_TAUTO_COUNT>
1

> <PUBCHEM_CONFORMER_ID>
006AB22500000002

> <PUBCHEM_MMFF94_ENERGY>
2.8316

> <PUBCHEM_FEATURE_SELFOVERLAP>
20.297

> <PUBCHEM_SHAPE_FINGERPRINT>
11062470 55 14045740417524511505
12932741 1 17703235134474348428
14325111 11 18410575067604568021
14390081 3 18413388713549528121
16714656 1 18334859419787443525
21040471 1 18409731754949737346
21293036 1 18273490182852425989
29004967 10 14273452578688291756
5460574 1 11314027980487413856

> <PUBCHEM_SHAPE_MULTIPOLES>
138.19
4.56
1.09
0.68
1.24
0.41
0.01
-1.66
0.2
-0.24
-0.03
-0.03
-0.03
0.13

> <PUBCHEM_SHAPE_SELFOVERLAP>
243.575

> <PUBCHEM_SHAPE_VOLUME>
91.1

> <PUBCHEM_COORDINATE_TYPE>
2
5
10

$$$$
