6993580
  -OEChem-11232109493D

 28 27  0     1  0  0  0  0  0999 V2000
   -0.0879    1.5363   -1.3968 O   0  0  0  0  0  0  0  0  0  0  0  0
    0.0879    1.5366    1.3966 O   0  0  0  0  0  0  0  0  0  0  0  0
    2.3125   -0.7213   -0.0061 O   0  0  0  0  0  0  0  0  0  0  0  0
   -2.3124   -0.7213    0.0062 O   0  0  0  0  0  0  0  0  0  0  0  0
    2.5522    1.3222   -1.0468 O   0  0  0  0  0  0  0  0  0  0  0  0
   -2.5524    1.3222    1.0466 O   0  0  0  0  0  0  0  0  0  0  0  0
    0.3382    0.3801   -0.6864 C   0  0  2  0  0  0  0  0  0  0  0  0
   -0.3383    0.3801    0.6865 C   0  0  2  0  0  0  0  0  0  0  0  0
    1.8566    0.4079   -0.6232 C   0  0  0  0  0  0  0  0  0  0  0  0
   -1.8567    0.4080    0.6233 C   0  0  0  0  0  0  0  0  0  0  0  0
    3.7327   -0.8127    0.1426 C   0  0  0  0  0  0  0  0  0  0  0  0
   -3.7326   -0.8128   -0.1426 C   0  0  0  0  0  0  0  0  0  0  0  0
    4.0729   -2.1126    0.8398 C   0  0  0  0  0  0  0  0  0  0  0  0
   -4.0726   -2.1128   -0.8398 C   0  0  0  0  0  0  0  0  0  0  0  0
    0.0333   -0.4934   -1.2737 H   0  0  0  0  0  0  0  0  0  0  0  0
   -0.0333   -0.4932    1.2740 H   0  0  0  0  0  0  0  0  0  0  0  0
    4.2059   -0.7877   -0.8454 H   0  0  0  0  0  0  0  0  0  0  0  0
    4.0924    0.0327    0.7398 H   0  0  0  0  0  0  0  0  0  0  0  0
   -4.2059   -0.7877    0.8453 H   0  0  0  0  0  0  0  0  0  0  0  0
   -4.0922    0.0325   -0.7399 H   0  0  0  0  0  0  0  0  0  0  0  0
    0.2411    1.4579   -2.3087 H   0  0  0  0  0  0  0  0  0  0  0  0
   -0.2410    1.4584    2.3086 H   0  0  0  0  0  0  0  0  0  0  0  0
    5.1537   -2.2152    0.9706 H   0  0  0  0  0  0  0  0  0  0  0  0
    3.5915   -2.1603    1.8223 H   0  0  0  0  0  0  0  0  0  0  0  0
    3.7036   -2.9672    0.2632 H   0  0  0  0  0  0  0  0  0  0  0  0
   -5.1534   -2.2154   -0.9707 H   0  0  0  0  0  0  0  0  0  0  0  0
   -3.5912   -2.1604   -1.8221 H   0  0  0  0  0  0  0  0  0  0  0  0
   -3.7034   -2.9673   -0.2631 H   0  0  0  0  0  0  0  0  0  0  0  0
  1  7  1  0  0  0  0
  1 21  1  0  0  0  0
  2  8  1  0  0  0  0
  2 22  1  0  0  0  0
  3  9  1  0  0  0  0
  3 11  1  0  0  0  0
  4 10  1  0  0  0  0
  4 12  1  0  0  0  0
  5  9  2  0  0  0  0
  6 10  2  0  0  0  0
  7  8  1  0  0  0  0
  7  9  1  0  0  0  0
  7 15  1  0  0  0  0
  8 10  1  0  0  0  0
  8 16  1  0  0  0  0
 11 13  1  0  0  0  0
 11 17  1  0  0  0  0
 11 18  1  0  0  0  0
 12 14  1  0  0  0  0
 12 19  1  0  0  0  0
 12 20  1  0  0  0  0
 13 23  1  0  0  0  0
 13 24  1  0  0  0  0
 13 25  1  0  0  0  0
 14 26  1  0  0  0  0
 14 27  1  0  0  0  0
 14 28  1  0  0  0  0
M  END
> <PUBCHEM_COMPOUND_CID>
6993580

> <PUBCHEM_CONFORMER_RMSD>
0.8

> <PUBCHEM_CONFORMER_DIVERSEORDER>
1
19
36
34
2
20
28
26
6
31
40
9
17
5
13
14
8
49
23
50
44
32
10
7
38
3
35
24
37
33
16
11
25
42
52
22
43
15
12
18
39
30
4
41
48
51
46
47
45
29
21
27

> <PUBCHEM_MMFF94_PARTIAL_CHARGES>
14
1 -0.68
10 0.66
11 0.28
12 0.28
2 -0.68
21 0.4
22 0.4
3 -0.43
4 -0.43
5 -0.57
6 -0.57
7 0.34
8 0.34
9 0.66

> <PUBCHEM_EFFECTIVE_ROTOR_COUNT>
7

> <PUBCHEM_PHARMACOPHORE_FEATURES>
6
1 1 acceptor
1 1 donor
1 2 acceptor
1 2 donor
1 5 acceptor
1 6 acceptor

> <PUBCHEM_HEAVY_ATOM_COUNT>
14

> <PUBCHEM_ATOM_DEF_STEREO_COUNT>
2

> <PUBCHEM_ATOM_UDEF_STEREO_COUNT>
0

> <PUBCHEM_BOND_DEF_STEREO_COUNT>
0

> <PUBCHEM_BOND_UDEF_STEREO_COUNT>
0

> <PUBCHEM_ISOTOPIC_ATOM_COUNT>
0

> <PUBCHEM_COMPONENT_COUNT>
1

> <PUBCHEM_CACTVS_TAUTO_COUNT>
1

> <PUBCHEM_CONFORMER_ID>
006AB6AC00000001

> <PUBCHEM_MMFF94_ENERGY>
5.8664

> <PUBCHEM_FEATURE_SELFOVERLAP>
30.471

> <PUBCHEM_SHAPE_FINGERPRINT>
10062212 137 18411699864116701195
10610426 29 18410847767841838593
10726558 24 12613032760392278128
10857977 72 16845581902212116585
11769659 78 18410855464423168070
12824470 246 18410285895957143227
12932764 1 18266762266580341921
13705890 14 17822576134837245387
14123260 362 8286198379046117495
14178342 30 17131008489685622755
14251717 144 18113619001925207842
177051 138 18272654532566950902
18186145 218 15140686885896351069
193927 3 18338531788577307650
20645477 70 17530687636239634050
20653085 51 10809640194052237190
20671657 53 18186519899479379998
20711985 344 16443897246412313996
20715346 28 15626233376785414924
21069387 34 18113905965405957579
21501925 9 18411696599777655466
22959321 60 15051734153215349314
23532345 42 16845578646584480927
23557571 272 16988296265240212313
23559900 14 17559974125173071444
23598291 2 18262532415478260468
3086196 2 18060698364560371203
5902787 121 17774725367405889691
7615 1 18410868654268201797
76465 3 18410566292865420263
9882013 296 15769769186652602566

> <PUBCHEM_SHAPE_MULTIPOLES>
252.9
7.5
1.99
1.18
0
0.64
0
6.17
0
0
0
0
-0.41
-1.59

> <PUBCHEM_SHAPE_SELFOVERLAP>
483.816

> <PUBCHEM_SHAPE_VOLUME>
154.7

> <PUBCHEM_COORDINATE_TYPE>
2
5
10

$$$$
