699489
  -OEChem-11232109463D

 22 22  0     0  0  0  0  0  0999 V2000
    2.6886    0.4518    0.0039 O   0  0  0  0  0  0  0  0  0  0  0  0
   -2.2557    1.1168   -0.0330 O   0  0  0  0  0  0  0  0  0  0  0  0
    1.9966   -1.7522   -0.0202 O   0  0  0  0  0  0  0  0  0  0  0  0
   -2.0035   -0.2074   -0.0023 C   0  0  0  0  0  0  0  0  0  0  0  0
    4.0576    0.0336    0.0100 C   0  0  0  0  0  0  0  0  0  0  0  0
   -0.6624   -0.7137   -0.0146 C   0  0  0  0  0  0  0  0  0  0  0  0
   -3.1506   -0.9436    0.0375 C   0  0  0  0  0  0  0  0  0  0  0  0
    4.9472    1.2584    0.0270 C   0  0  0  0  0  0  0  0  0  0  0  0
    0.4261    0.0699   -0.0160 C   0  0  0  0  0  0  0  0  0  0  0  0
   -4.2053    0.0001    0.0314 C   0  0  0  0  0  0  0  0  0  0  0  0
    1.7706   -0.5525   -0.0114 C   0  0  0  0  0  0  0  0  0  0  0  0
   -3.6091    1.2388   -0.0123 C   0  0  0  0  0  0  0  0  0  0  0  0
    4.2492   -0.5758    0.9002 H   0  0  0  0  0  0  0  0  0  0  0  0
    4.2620   -0.5602   -0.8880 H   0  0  0  0  0  0  0  0  0  0  0  0
   -0.5519   -1.7955   -0.0130 H   0  0  0  0  0  0  0  0  0  0  0  0
   -3.2385   -2.0208    0.0673 H   0  0  0  0  0  0  0  0  0  0  0  0
    6.0033    0.9747    0.0321 H   0  0  0  0  0  0  0  0  0  0  0  0
    4.7540    1.8871   -0.8485 H   0  0  0  0  0  0  0  0  0  0  0  0
    4.7415    1.8718    0.9104 H   0  0  0  0  0  0  0  0  0  0  0  0
    0.3616    1.1530   -0.0129 H   0  0  0  0  0  0  0  0  0  0  0  0
   -5.2671   -0.1978    0.0554 H   0  0  0  0  0  0  0  0  0  0  0  0
   -3.9875    2.2504   -0.0325 H   0  0  0  0  0  0  0  0  0  0  0  0
  1  5  1  0  0  0  0
  1 11  1  0  0  0  0
  2  4  1  0  0  0  0
  2 12  1  0  0  0  0
  3 11  2  0  0  0  0
  4  6  1  0  0  0  0
  4  7  2  0  0  0  0
  5  8  1  0  0  0  0
  5 13  1  0  0  0  0
  5 14  1  0  0  0  0
  6  9  2  0  0  0  0
  6 15  1  0  0  0  0
  7 10  1  0  0  0  0
  7 16  1  0  0  0  0
  8 17  1  0  0  0  0
  8 18  1  0  0  0  0
  8 19  1  0  0  0  0
  9 11  1  0  0  0  0
  9 20  1  0  0  0  0
 10 12  2  0  0  0  0
 10 21  1  0  0  0  0
 12 22  1  0  0  0  0
M  END
> <PUBCHEM_COMPOUND_CID>
699489

> <PUBCHEM_CONFORMER_RMSD>
0.6

> <PUBCHEM_CONFORMER_DIVERSEORDER>
1
13
22
15
12
14
8
21
2
17
9
7
4
18
11
3
16
24
6
19
5
20
10
23

> <PUBCHEM_MMFF94_PARTIAL_CHARGES>
16
1 -0.43
10 -0.15
11 0.71
12 -0.01
15 0.15
16 0.15
2 -0.28
20 0.15
21 0.15
22 0.15
3 -0.57
4 0.09
5 0.28
6 -0.11
7 -0.15
9 -0.14

> <PUBCHEM_EFFECTIVE_ROTOR_COUNT>
4

> <PUBCHEM_PHARMACOPHORE_FEATURES>
3
1 2 acceptor
1 3 acceptor
5 2 4 7 10 12 rings

> <PUBCHEM_HEAVY_ATOM_COUNT>
12

> <PUBCHEM_ATOM_DEF_STEREO_COUNT>
0

> <PUBCHEM_ATOM_UDEF_STEREO_COUNT>
0

> <PUBCHEM_BOND_DEF_STEREO_COUNT>
1

> <PUBCHEM_BOND_UDEF_STEREO_COUNT>
0

> <PUBCHEM_ISOTOPIC_ATOM_COUNT>
0

> <PUBCHEM_COMPONENT_COUNT>
1

> <PUBCHEM_CACTVS_TAUTO_COUNT>
1

> <PUBCHEM_CONFORMER_ID>
000AAC6100000001

> <PUBCHEM_MMFF94_ENERGY>
13.4283

> <PUBCHEM_FEATURE_SELFOVERLAP>
15.223

> <PUBCHEM_SHAPE_FINGERPRINT>
10014705 185 18260824874347858589
11062470 55 18410575080368131114
12346645 44 18408602561077337322
12932764 1 17274526672848758771
13081056 2 18413109468024782500
13214271 11 18335137622246903671
13897977 58 18411421730386948917
14123238 8 18410292535944550752
14252887 29 12829479330124614176
14325111 11 18410575046377813775
14415576 193 18410859858691689788
170605 34 18407760322454468082
20279233 1 15068341198627201291
20645477 56 18334295328005906117
20645477 70 18129945559396226046
21119208 17 11600006544072257915
23402539 116 18041271153559468967
23402655 69 18272929388925101565
42 15 10665225951714267796
42788 4 18411138052234258272
449060 50 18408606958881008541
5104073 3 18335985280997292395
77779 3 18411702058364700958

> <PUBCHEM_SHAPE_MULTIPOLES>
229.35
9.65
1.32
0.59
5.71
0.04
0
-3.19
-0.11
0.14
0
-0.02
0
0.04

> <PUBCHEM_SHAPE_SELFOVERLAP>
467.343

> <PUBCHEM_SHAPE_VOLUME>
134.2

> <PUBCHEM_COORDINATE_TYPE>
2
5
10

$$$$
