6994068
  -OEChem-11232109103D

 28 27  0     1  0  0  0  0  0999 V2000
   -3.5365    1.3328   -0.0075 O   0  0  0  0  0  0  0  0  0  0  0  0
    1.3910    0.6624   -0.1045 C   0  0  0  0  0  0  0  0  0  0  0  0
    0.0196    0.0699    0.2345 C   0  0  0  0  0  0  0  0  0  0  0  0
    2.5506   -0.3063    0.1376 C   0  0  0  0  0  0  0  0  0  0  0  0
   -1.1467    1.0173   -0.0742 C   0  0  0  0  0  0  0  0  0  0  0  0
    3.8931    0.3409   -0.2061 C   0  0  0  0  0  0  0  0  0  0  0  0
   -2.5008    0.4033    0.3054 C   0  0  2  0  0  0  0  0  0  0  0  0
    5.0527   -0.6050    0.0624 C   0  0  0  0  0  0  0  0  0  0  0  0
   -2.7481   -0.8645   -0.4613 C   0  0  0  0  0  0  0  0  0  0  0  0
   -2.9750   -2.0508    0.1138 C   0  0  0  0  0  0  0  0  0  0  0  0
    1.3960    0.9715   -1.1572 H   0  0  0  0  0  0  0  0  0  0  0  0
    1.5439    1.5702    0.4923 H   0  0  0  0  0  0  0  0  0  0  0  0
   -0.0011   -0.1973    1.2983 H   0  0  0  0  0  0  0  0  0  0  0  0
   -0.0932   -0.8624   -0.3308 H   0  0  0  0  0  0  0  0  0  0  0  0
    2.4092   -1.2085   -0.4697 H   0  0  0  0  0  0  0  0  0  0  0  0
    2.5499   -0.6200    1.1884 H   0  0  0  0  0  0  0  0  0  0  0  0
   -1.1401    1.2885   -1.1383 H   0  0  0  0  0  0  0  0  0  0  0  0
   -1.0128    1.9601    0.4715 H   0  0  0  0  0  0  0  0  0  0  0  0
    3.9049    0.6356   -1.2619 H   0  0  0  0  0  0  0  0  0  0  0  0
    4.0300    1.2526    0.3870 H   0  0  0  0  0  0  0  0  0  0  0  0
   -2.5381    0.2210    1.3860 H   0  0  0  0  0  0  0  0  0  0  0  0
    6.0019   -0.1226   -0.1911 H   0  0  0  0  0  0  0  0  0  0  0  0
    5.0886   -0.8919    1.1182 H   0  0  0  0  0  0  0  0  0  0  0  0
    4.9631   -1.5156   -0.5385 H   0  0  0  0  0  0  0  0  0  0  0  0
   -2.7538   -0.8046   -1.5470 H   0  0  0  0  0  0  0  0  0  0  0  0
   -3.3641    2.1450    0.4988 H   0  0  0  0  0  0  0  0  0  0  0  0
   -3.1530   -2.9308   -0.4944 H   0  0  0  0  0  0  0  0  0  0  0  0
   -2.9859   -2.1659    1.1920 H   0  0  0  0  0  0  0  0  0  0  0  0
  1  7  1  0  0  0  0
  1 26  1  0  0  0  0
  2  3  1  0  0  0  0
  2  4  1  0  0  0  0
  2 11  1  0  0  0  0
  2 12  1  0  0  0  0
  3  5  1  0  0  0  0
  3 13  1  0  0  0  0
  3 14  1  0  0  0  0
  4  6  1  0  0  0  0
  4 15  1  0  0  0  0
  4 16  1  0  0  0  0
  5  7  1  0  0  0  0
  5 17  1  0  0  0  0
  5 18  1  0  0  0  0
  6  8  1  0  0  0  0
  6 19  1  0  0  0  0
  6 20  1  0  0  0  0
  7  9  1  0  0  0  0
  7 21  1  0  0  0  0
  8 22  1  0  0  0  0
  8 23  1  0  0  0  0
  8 24  1  0  0  0  0
  9 10  2  0  0  0  0
  9 25  1  0  0  0  0
 10 27  1  0  0  0  0
 10 28  1  0  0  0  0
M  END
> <PUBCHEM_COMPOUND_CID>
6994068

> <PUBCHEM_CONFORMER_RMSD>
0.6

> <PUBCHEM_CONFORMER_DIVERSEORDER>
2
109
69
105
42
45
24
14
111
99
63
91
8
9
71
13
1
94
101
73
115
18
85
17
116
51
95
48
104
92
117
23
68
89
53
40
10
96
57
38
72
12
87
110
102
30
56
4
106
66
16
74
114
49
93
5
31
80
22
41
107
11
86
97
79
103
60
39
70
27
90
37
54
6
50
76
25
65
83
19
62
33
98
75
113
100
78
3
58
82
29
35
26
88
108
44
32
112
21
43
84
15
64
55
46
36
7
47
59
20
28
67
81
34
77
61
52

> <PUBCHEM_MMFF94_PARTIAL_CHARGES>
8
1 -0.68
10 -0.3
25 0.15
26 0.4
27 0.15
28 0.15
7 0.42
9 -0.29

> <PUBCHEM_EFFECTIVE_ROTOR_COUNT>
6

> <PUBCHEM_PHARMACOPHORE_FEATURES>
5
1 1 acceptor
1 1 donor
1 10 hydrophobe
1 8 hydrophobe
5 2 3 4 5 6 hydrophobe

> <PUBCHEM_HEAVY_ATOM_COUNT>
10

> <PUBCHEM_ATOM_DEF_STEREO_COUNT>
1

> <PUBCHEM_ATOM_UDEF_STEREO_COUNT>
0

> <PUBCHEM_BOND_DEF_STEREO_COUNT>
0

> <PUBCHEM_BOND_UDEF_STEREO_COUNT>
0

> <PUBCHEM_ISOTOPIC_ATOM_COUNT>
0

> <PUBCHEM_COMPONENT_COUNT>
1

> <PUBCHEM_CACTVS_TAUTO_COUNT>
1

> <PUBCHEM_CONFORMER_ID>
006AB89400000002

> <PUBCHEM_MMFF94_ENERGY>
2.0371

> <PUBCHEM_FEATURE_SELFOVERLAP>
25.373

> <PUBCHEM_SHAPE_FINGERPRINT>
10680689 15 18260271832535699352
11062470 55 18261114045663220856
11987891 38 18413109438171098974
124424 183 17632292358900586073
12500047 106 18340762650656968333
12757275 245 18409731797915572371
12932764 1 17603573128010014888
14325111 11 18411138052102434952
14577589 140 17988922279927379743
177051 138 18341049713470442718
17834072 33 18335426807344109924
17834074 16 18272938193851002454
18186145 218 15430040984902423364
190213 19 17561084696399617416
1986462 14 18410012147715911446
20279233 1 17346884437623818244
20645477 56 18337674109821017077
20645477 70 16414921812401348292
20828058 44 18342457032703978986
21061003 4 16988846119990958787
22485316 2 18409445869616457818
22959321 4 18338799047464936996
23402539 116 18186515497733824908

> <PUBCHEM_SHAPE_MULTIPOLES>
199.93
9.04
1.47
0.65
8.84
0.49
0.01
2
0.17
-1.79
-0.01
-0.04
0.03
-0.13

> <PUBCHEM_SHAPE_SELFOVERLAP>
357.286

> <PUBCHEM_SHAPE_VOLUME>
129.9

> <PUBCHEM_COORDINATE_TYPE>
2
5
10

$$$$
