6998928
  -OEChem-11232109093D

 24 23  0     1  0  0  0  0  0999 V2000
   -1.1624   -1.3549    0.3226 O   0  0  0  0  0  0  0  0  0  0  0  0
    0.1936    0.6237    0.1756 C   0  0  0  0  0  0  0  0  0  0  0  0
   -1.1081   -0.0555   -0.2683 C   0  0  2  0  0  0  0  0  0  0  0  0
    1.4358   -0.1693   -0.2494 C   0  0  0  0  0  0  0  0  0  0  0  0
   -2.3642    0.7137    0.1584 C   0  0  0  0  0  0  0  0  0  0  0  0
    2.7187    0.5126    0.2273 C   0  0  0  0  0  0  0  0  0  0  0  0
   -3.6651    0.0200   -0.2107 C   0  0  0  0  0  0  0  0  0  0  0  0
    3.9517   -0.2903   -0.1554 C   0  0  0  0  0  0  0  0  0  0  0  0
    0.2404    1.6363   -0.2421 H   0  0  0  0  0  0  0  0  0  0  0  0
    0.1983    0.7176    1.2690 H   0  0  0  0  0  0  0  0  0  0  0  0
   -1.1164   -0.1793   -1.3580 H   0  0  0  0  0  0  0  0  0  0  0  0
    1.4525   -0.2700   -1.3413 H   0  0  0  0  0  0  0  0  0  0  0  0
    1.4025   -1.1810    0.1704 H   0  0  0  0  0  0  0  0  0  0  0  0
   -2.3486    1.7131   -0.2920 H   0  0  0  0  0  0  0  0  0  0  0  0
   -2.3550    0.8491    1.2472 H   0  0  0  0  0  0  0  0  0  0  0  0
    2.7908    1.5156   -0.2091 H   0  0  0  0  0  0  0  0  0  0  0  0
    2.6945    0.6335    1.3167 H   0  0  0  0  0  0  0  0  0  0  0  0
   -3.7249   -0.1472   -1.2908 H   0  0  0  0  0  0  0  0  0  0  0  0
   -3.7602   -0.9468    0.2930 H   0  0  0  0  0  0  0  0  0  0  0  0
   -4.5194    0.6371    0.0850 H   0  0  0  0  0  0  0  0  0  0  0  0
    4.8571    0.2168    0.1922 H   0  0  0  0  0  0  0  0  0  0  0  0
    3.9266   -1.2874    0.2956 H   0  0  0  0  0  0  0  0  0  0  0  0
    4.0227   -0.4058   -1.2416 H   0  0  0  0  0  0  0  0  0  0  0  0
   -0.5877   -1.9412   -0.1977 H   0  0  0  0  0  0  0  0  0  0  0  0
  1  3  1  0  0  0  0
  1 24  1  0  0  0  0
  2  3  1  0  0  0  0
  2  4  1  0  0  0  0
  2  9  1  0  0  0  0
  2 10  1  0  0  0  0
  3  5  1  0  0  0  0
  3 11  1  0  0  0  0
  4  6  1  0  0  0  0
  4 12  1  0  0  0  0
  4 13  1  0  0  0  0
  5  7  1  0  0  0  0
  5 14  1  0  0  0  0
  5 15  1  0  0  0  0
  6  8  1  0  0  0  0
  6 16  1  0  0  0  0
  6 17  1  0  0  0  0
  7 18  1  0  0  0  0
  7 19  1  0  0  0  0
  7 20  1  0  0  0  0
  8 21  1  0  0  0  0
  8 22  1  0  0  0  0
  8 23  1  0  0  0  0
M  END
> <PUBCHEM_COMPOUND_CID>
6998928

> <PUBCHEM_CONFORMER_RMSD>
0.6

> <PUBCHEM_CONFORMER_DIVERSEORDER>
1
32
12
18
13
29
24
3
10
21
26
17
28
19
8
4
27
6
31
7
14
5
25
23
16
30
20
11
33
15
9
22
2

> <PUBCHEM_MMFF94_PARTIAL_CHARGES>
3
1 -0.68
24 0.4
3 0.28

> <PUBCHEM_EFFECTIVE_ROTOR_COUNT>
4

> <PUBCHEM_PHARMACOPHORE_FEATURES>
4
1 1 acceptor
1 1 donor
1 7 hydrophobe
1 8 hydrophobe

> <PUBCHEM_HEAVY_ATOM_COUNT>
8

> <PUBCHEM_ATOM_DEF_STEREO_COUNT>
1

> <PUBCHEM_ATOM_UDEF_STEREO_COUNT>
0

> <PUBCHEM_BOND_DEF_STEREO_COUNT>
0

> <PUBCHEM_BOND_UDEF_STEREO_COUNT>
0

> <PUBCHEM_ISOTOPIC_ATOM_COUNT>
0

> <PUBCHEM_COMPONENT_COUNT>
1

> <PUBCHEM_CACTVS_TAUTO_COUNT>
1

> <PUBCHEM_CONFORMER_ID>
006ACB9000000001

> <PUBCHEM_MMFF94_ENERGY>
1.6217

> <PUBCHEM_FEATURE_SELFOVERLAP>
20.297

> <PUBCHEM_SHAPE_FINGERPRINT>
11062470 55 14117517640492485625
12932764 1 16950832691794252540
14325111 11 18410855438843313837
14390081 3 18202280303378387920
190213 19 17095526192715825652
20201158 50 18273498957449480230
20719005 15 18413388739319052566
21293036 1 18409163316318190757
23235685 24 18410569582815260518
23402539 116 18131060520432432389
3248919 1 14404912435384076260
5460574 1 7853573513089684733

> <PUBCHEM_SHAPE_MULTIPOLES>
158.77
6.61
0.94
0.65
1.84
0.13
0.01
0.04
0.35
-0.19
-0.09
0
0
0.09

> <PUBCHEM_SHAPE_SELFOVERLAP>
277.051

> <PUBCHEM_SHAPE_VOLUME>
105.7

> <PUBCHEM_COORDINATE_TYPE>
2
5
10

$$$$
