6999980
  -OEChem-11232109023D

 34 33  0     1  0  0  0  0  0999 V2000
    1.2115   -0.8299   -0.0111 O   0  0  0  0  0  0  0  0  0  0  0  0
    3.5059   -0.5598   -0.0189 O   0  0  0  0  0  0  0  0  0  0  0  0
    1.0479    0.5418   -0.4123 C   0  0  2  0  0  0  0  0  0  0  0  0
   -0.4746    0.8052   -0.5049 C   0  0  0  0  0  0  0  0  0  0  0  0
   -1.2758    0.4350    0.7481 C   0  0  0  0  0  0  0  0  0  0  0  0
    1.7119    0.6476   -1.7907 C   0  0  0  0  0  0  0  0  0  0  0  0
    1.6806    1.3948    0.6678 C   0  0  0  0  0  0  0  0  0  0  0  0
   -2.7470    0.6607    0.5330 C   0  0  0  0  0  0  0  0  0  0  0  0
   -3.6486   -0.2135    0.0475 C   0  0  0  0  0  0  0  0  0  0  0  0
    2.5001   -1.2369    0.1459 C   0  0  0  0  0  0  0  0  0  0  0  0
    2.3132    2.5647    0.5160 C   0  0  0  0  0  0  0  0  0  0  0  0
   -5.1110    0.0737   -0.1444 C   0  0  0  0  0  0  0  0  0  0  0  0
   -3.2304   -1.6069   -0.3390 C   0  0  0  0  0  0  0  0  0  0  0  0
    2.5164   -2.6763    0.5628 C   0  0  0  0  0  0  0  0  0  0  0  0
   -0.6515    1.8590   -0.7602 H   0  0  0  0  0  0  0  0  0  0  0  0
   -0.8693    0.2139   -1.3432 H   0  0  0  0  0  0  0  0  0  0  0  0
   -0.9640    1.0615    1.5925 H   0  0  0  0  0  0  0  0  0  0  0  0
   -1.0790   -0.5951    1.0616 H   0  0  0  0  0  0  0  0  0  0  0  0
    1.4582   -0.2137   -2.4204 H   0  0  0  0  0  0  0  0  0  0  0  0
    1.3655    1.5490   -2.3110 H   0  0  0  0  0  0  0  0  0  0  0  0
    2.8028    0.7205   -1.7681 H   0  0  0  0  0  0  0  0  0  0  0  0
    1.5653    1.0379    1.6911 H   0  0  0  0  0  0  0  0  0  0  0  0
   -3.0980    1.6589    0.7905 H   0  0  0  0  0  0  0  0  0  0  0  0
    2.7038    3.0928    1.3792 H   0  0  0  0  0  0  0  0  0  0  0  0
    2.4492    3.0183   -0.4588 H   0  0  0  0  0  0  0  0  0  0  0  0
   -5.7169   -0.6193    0.4481 H   0  0  0  0  0  0  0  0  0  0  0  0
   -5.3862   -0.0324   -1.1986 H   0  0  0  0  0  0  0  0  0  0  0  0
   -5.3660    1.0919    0.1673 H   0  0  0  0  0  0  0  0  0  0  0  0
   -3.5872   -1.8336   -1.3501 H   0  0  0  0  0  0  0  0  0  0  0  0
   -2.1513   -1.7734   -0.3498 H   0  0  0  0  0  0  0  0  0  0  0  0
   -3.6752   -2.3341    0.3486 H   0  0  0  0  0  0  0  0  0  0  0  0
    2.0492   -3.2916   -0.2103 H   0  0  0  0  0  0  0  0  0  0  0  0
    1.9941   -2.7922    1.5158 H   0  0  0  0  0  0  0  0  0  0  0  0
    3.5517   -3.0048    0.6909 H   0  0  0  0  0  0  0  0  0  0  0  0
  1  3  1  0  0  0  0
  1 10  1  0  0  0  0
  2 10  2  0  0  0  0
  3  4  1  0  0  0  0
  3  6  1  0  0  0  0
  3  7  1  0  0  0  0
  4  5  1  0  0  0  0
  4 15  1  0  0  0  0
  4 16  1  0  0  0  0
  5  8  1  0  0  0  0
  5 17  1  0  0  0  0
  5 18  1  0  0  0  0
  6 19  1  0  0  0  0
  6 20  1  0  0  0  0
  6 21  1  0  0  0  0
  7 11  2  0  0  0  0
  7 22  1  0  0  0  0
  8  9  2  0  0  0  0
  8 23  1  0  0  0  0
  9 12  1  0  0  0  0
  9 13  1  0  0  0  0
 10 14  1  0  0  0  0
 11 24  1  0  0  0  0
 11 25  1  0  0  0  0
 12 26  1  0  0  0  0
 12 27  1  0  0  0  0
 12 28  1  0  0  0  0
 13 29  1  0  0  0  0
 13 30  1  0  0  0  0
 13 31  1  0  0  0  0
 14 32  1  0  0  0  0
 14 33  1  0  0  0  0
 14 34  1  0  0  0  0
M  END
> <PUBCHEM_COMPOUND_CID>
6999980

> <PUBCHEM_CONFORMER_RMSD>
0.6

> <PUBCHEM_CONFORMER_DIVERSEORDER>
1
71
90
94
63
72
41
26
70
3
96
51
73
109
83
37
21
46
66
104
61
24
22
103
6
47
82
11
49
35
59
25
19
39
78
106
75
2
85
81
48
86
77
34
38
8
99
65
89
100
60
23
12
32
79
68
9
44
88
14
67
111
95
36
74
18
102
52
13
62
17
91
30
87
58
93
27
42
80
16
31
54
20
84
97
110
53
101
45
15
5
28
108
57
33
55
113
4
43
50
107
64
69
7
56
10
92
105
76
98
40
29
112

> <PUBCHEM_MMFF94_PARTIAL_CHARGES>
16
1 -0.43
10 0.66
11 -0.3
12 0.14
13 0.14
14 0.06
2 -0.57
22 0.15
23 0.15
24 0.15
25 0.15
3 0.42
5 0.14
7 -0.29
8 -0.29
9 -0.28

> <PUBCHEM_EFFECTIVE_ROTOR_COUNT>
6

> <PUBCHEM_PHARMACOPHORE_FEATURES>
3
1 11 hydrophobe
1 2 acceptor
3 9 12 13 hydrophobe

> <PUBCHEM_HEAVY_ATOM_COUNT>
14

> <PUBCHEM_ATOM_DEF_STEREO_COUNT>
1

> <PUBCHEM_ATOM_UDEF_STEREO_COUNT>
0

> <PUBCHEM_BOND_DEF_STEREO_COUNT>
0

> <PUBCHEM_BOND_UDEF_STEREO_COUNT>
0

> <PUBCHEM_ISOTOPIC_ATOM_COUNT>
0

> <PUBCHEM_COMPONENT_COUNT>
1

> <PUBCHEM_CACTVS_TAUTO_COUNT>
1

> <PUBCHEM_CONFORMER_ID>
006ACFAC00000001

> <PUBCHEM_MMFF94_ENERGY>
27.3978

> <PUBCHEM_FEATURE_SELFOVERLAP>
15.223

> <PUBCHEM_SHAPE_FINGERPRINT>
10922523 26 18040147405979634157
11806522 49 18409167705848678722
12251169 10 18273211989082873951
12616999 72 17604726593364882815
12932764 1 18340221751345349481
14251717 144 18408323272101973282
14344429 50 18272376373294345980
14350558 41 18336268963729695079
15375462 189 18338242565595126730
15501101 241 18333449820443153372
170605 34 17773602808873366072
18186145 218 18271817838894404353
20559304 39 18343024363096728818
20645477 70 18272371992606980759
20671657 53 18339925905054404705
21501925 9 18202560666116740033
21524375 3 17700131298933244016
21730867 7 18409162255181882113
22169311 21 18335414712378412041
2255824 54 18410299150458093244
23557571 272 16128381407117444017
23559900 14 18340762723703132633
3248919 1 17458630076920042937
58051976 100 18410856556046552927
581208 293 18335699493952666896
7364860 26 18413388756641411600
81539 233 18198059381582717652

> <PUBCHEM_SHAPE_MULTIPOLES>
276.37
7.59
2.28
1.02
9.36
0.58
-0.36
1.65
0.12
-2.59
0.55
-0.44
-0.22
-0.34

> <PUBCHEM_SHAPE_SELFOVERLAP>
528.711

> <PUBCHEM_SHAPE_VOLUME>
169.4

> <PUBCHEM_COORDINATE_TYPE>
2
5
10

$$$$
