7021340
  -OEChem-11232109453D

 28 27  0     1  0  0  0  0  0999 V2000
   -3.5380   -1.3322    0.0041 O   0  0  0  0  0  0  0  0  0  0  0  0
    1.3847   -0.6388   -0.1594 C   0  0  0  0  0  0  0  0  0  0  0  0
    0.0178   -0.0646    0.2263 C   0  0  0  0  0  0  0  0  0  0  0  0
    2.5542    0.2858    0.1859 C   0  0  0  0  0  0  0  0  0  0  0  0
   -1.1471   -1.0216   -0.0567 C   0  0  0  0  0  0  0  0  0  0  0  0
    3.8897   -0.3322   -0.2310 C   0  0  0  0  0  0  0  0  0  0  0  0
   -2.5015   -0.4024    0.3135 C   0  0  1  0  0  0  0  0  0  0  0  0
    5.0538    0.5950    0.0797 C   0  0  0  0  0  0  0  0  0  0  0  0
   -2.7436    0.8599   -0.4638 C   0  0  0  0  0  0  0  0  0  0  0  0
   -2.9701    2.0511    0.1014 C   0  0  0  0  0  0  0  0  0  0  0  0
    1.5247   -1.5999    0.3510 H   0  0  0  0  0  0  0  0  0  0  0  0
    1.3919   -0.8487   -1.2362 H   0  0  0  0  0  0  0  0  0  0  0  0
   -0.1146    0.8751   -0.3216 H   0  0  0  0  0  0  0  0  0  0  0  0
    0.0222    0.1869    1.2943 H   0  0  0  0  0  0  0  0  0  0  0  0
    2.5594    0.4849    1.2642 H   0  0  0  0  0  0  0  0  0  0  0  0
    2.4191    1.2492   -0.3205 H   0  0  0  0  0  0  0  0  0  0  0  0
   -1.0087   -1.9533    0.5064 H   0  0  0  0  0  0  0  0  0  0  0  0
   -1.1445   -1.3133   -1.1154 H   0  0  0  0  0  0  0  0  0  0  0  0
    4.0380   -1.2849    0.2906 H   0  0  0  0  0  0  0  0  0  0  0  0
    3.8811   -0.5484   -1.3058 H   0  0  0  0  0  0  0  0  0  0  0  0
   -2.5416   -0.2114    1.3924 H   0  0  0  0  0  0  0  0  0  0  0  0
    5.9981    0.1332   -0.2252 H   0  0  0  0  0  0  0  0  0  0  0  0
    4.9522    1.5451   -0.4545 H   0  0  0  0  0  0  0  0  0  0  0  0
    5.1102    0.8077    1.1521 H   0  0  0  0  0  0  0  0  0  0  0  0
   -2.7458    0.7916   -1.5491 H   0  0  0  0  0  0  0  0  0  0  0  0
   -3.3676   -2.1417    0.5154 H   0  0  0  0  0  0  0  0  0  0  0  0
   -3.1443    2.9267   -0.5142 H   0  0  0  0  0  0  0  0  0  0  0  0
   -2.9844    2.1745    1.1786 H   0  0  0  0  0  0  0  0  0  0  0  0
  1  7  1  0  0  0  0
  1 26  1  0  0  0  0
  2  3  1  0  0  0  0
  2  4  1  0  0  0  0
  2 11  1  0  0  0  0
  2 12  1  0  0  0  0
  3  5  1  0  0  0  0
  3 13  1  0  0  0  0
  3 14  1  0  0  0  0
  4  6  1  0  0  0  0
  4 15  1  0  0  0  0
  4 16  1  0  0  0  0
  5  7  1  0  0  0  0
  5 17  1  0  0  0  0
  5 18  1  0  0  0  0
  6  8  1  0  0  0  0
  6 19  1  0  0  0  0
  6 20  1  0  0  0  0
  7  9  1  0  0  0  0
  7 21  1  0  0  0  0
  8 22  1  0  0  0  0
  8 23  1  0  0  0  0
  8 24  1  0  0  0  0
  9 10  2  0  0  0  0
  9 25  1  0  0  0  0
 10 27  1  0  0  0  0
 10 28  1  0  0  0  0
M  END
> <PUBCHEM_COMPOUND_CID>
7021340

> <PUBCHEM_CONFORMER_RMSD>
0.6

> <PUBCHEM_CONFORMER_DIVERSEORDER>
2
99
71
101
1
45
96
7
49
82
91
54
75
11
95
31
20
60
90
47
100
22
77
53
32
84
17
93
10
88
67
14
89
24
26
36
48
83
15
92
63
18
98
12
56
74
85
40
46
72
6
30
50
86
51
94
5
81
73
3
87
61
19
39
37
38
9
27
97
79
8
58
55
52
69
42
33
23
44
29
76
34
4
25
59
13
65
78
70
68
80
41
16
35
66
43
21
62
28
57
64

> <PUBCHEM_MMFF94_PARTIAL_CHARGES>
8
1 -0.68
10 -0.3
25 0.15
26 0.4
27 0.15
28 0.15
7 0.42
9 -0.29

> <PUBCHEM_EFFECTIVE_ROTOR_COUNT>
6

> <PUBCHEM_PHARMACOPHORE_FEATURES>
5
1 1 acceptor
1 1 donor
1 10 hydrophobe
1 8 hydrophobe
5 2 3 4 5 6 hydrophobe

> <PUBCHEM_HEAVY_ATOM_COUNT>
10

> <PUBCHEM_ATOM_DEF_STEREO_COUNT>
1

> <PUBCHEM_ATOM_UDEF_STEREO_COUNT>
0

> <PUBCHEM_BOND_DEF_STEREO_COUNT>
0

> <PUBCHEM_BOND_UDEF_STEREO_COUNT>
0

> <PUBCHEM_ISOTOPIC_ATOM_COUNT>
0

> <PUBCHEM_COMPONENT_COUNT>
1

> <PUBCHEM_CACTVS_TAUTO_COUNT>
1

> <PUBCHEM_CONFORMER_ID>
006B231C00000002

> <PUBCHEM_MMFF94_ENERGY>
2.1707

> <PUBCHEM_FEATURE_SELFOVERLAP>
25.373

> <PUBCHEM_SHAPE_FINGERPRINT>
10680689 15 18411708707211510498
11062470 55 18411138052387271570
12162725 195 18187088385735290492
12932764 1 17632565063511945090
14325111 11 18409729538994610410
15501527 16 18341616996724411337
17834072 32 18118682119527073717
18186145 218 16415472775132694250
190213 19 17095524006767408530
1986462 14 18410295800246400406
20645477 56 18411705344341788473
20645477 70 17131284480463967550
20828058 21 18410295822180172758
23380061 127 18408038528639170103
23402539 116 18336259137219302287
23500284 214 18268155266730484841
23557571 272 18201727257872628885
573450 72 18260817186155802506

> <PUBCHEM_SHAPE_MULTIPOLES>
199.93
9.04
1.47
0.66
8.85
0.49
-0.01
1.97
-0.13
-1.8
0.01
-0.02
0.02
0.16

> <PUBCHEM_SHAPE_SELFOVERLAP>
357.324

> <PUBCHEM_SHAPE_VOLUME>
129.9

> <PUBCHEM_COORDINATE_TYPE>
2
5
10

$$$$
