70368
  -OEChem-11232109033D

 44 44  0     0  0  0  0  0  0999 V2000
    2.4655   -0.7778   -1.1279 O   0  0  0  0  0  0  0  0  0  0  0  0
    2.8587    0.2383    0.9374 O   0  0  0  0  0  0  0  0  0  0  0  0
    1.8551   -0.1160   -0.0168 C   0  0  0  0  0  0  0  0  0  0  0  0
    1.1993    1.1920   -0.5176 C   0  0  0  0  0  0  0  0  0  0  0  0
    0.8755   -1.1162    0.6384 C   0  0  0  0  0  0  0  0  0  0  0  0
    0.4896    2.0182    0.5661 C   0  0  0  0  0  0  0  0  0  0  0  0
   -0.3028   -1.5248   -0.2544 C   0  0  0  0  0  0  0  0  0  0  0  0
   -0.7112    2.8227    0.0454 C   0  0  0  0  0  0  0  0  0  0  0  0
   -1.4552   -2.1219    0.5576 C   0  0  0  0  0  0  0  0  0  0  0  0
   -1.9144    1.9880   -0.4272 C   0  0  0  0  0  0  0  0  0  0  0  0
   -2.7757   -2.1936   -0.2139 C   0  0  0  0  0  0  0  0  0  0  0  0
   -2.5363    1.1274    0.6792 C   0  0  0  0  0  0  0  0  0  0  0  0
   -3.3348   -0.8836   -0.7968 C   0  0  0  0  0  0  0  0  0  0  0  0
   -3.6843    0.2233    0.2095 C   0  0  0  0  0  0  0  0  0  0  0  0
    3.4596    0.0366   -1.7272 C   0  0  0  0  0  0  0  0  0  0  0  0
    3.5114   -0.9127    1.4480 C   0  0  0  0  0  0  0  0  0  0  0  0
    0.5448    0.9783   -1.3677 H   0  0  0  0  0  0  0  0  0  0  0  0
    1.9630    1.8668   -0.9246 H   0  0  0  0  0  0  0  0  0  0  0  0
    0.5178   -0.7127    1.5924 H   0  0  0  0  0  0  0  0  0  0  0  0
    1.3844   -2.0554    0.8885 H   0  0  0  0  0  0  0  0  0  0  0  0
    1.2170    2.7244    0.9879 H   0  0  0  0  0  0  0  0  0  0  0  0
    0.1720    1.4008    1.4085 H   0  0  0  0  0  0  0  0  0  0  0  0
    0.0318   -2.2471   -1.0088 H   0  0  0  0  0  0  0  0  0  0  0  0
   -0.6636   -0.6584   -0.8025 H   0  0  0  0  0  0  0  0  0  0  0  0
   -0.3803    3.4618   -0.7825 H   0  0  0  0  0  0  0  0  0  0  0  0
   -1.0469    3.4973    0.8429 H   0  0  0  0  0  0  0  0  0  0  0  0
   -1.6158   -1.5627    1.4847 H   0  0  0  0  0  0  0  0  0  0  0  0
   -1.1752   -3.1357    0.8709 H   0  0  0  0  0  0  0  0  0  0  0  0
   -1.6170    1.3751   -1.2809 H   0  0  0  0  0  0  0  0  0  0  0  0
   -2.6807    2.6768   -0.8046 H   0  0  0  0  0  0  0  0  0  0  0  0
   -3.5341   -2.6316    0.4475 H   0  0  0  0  0  0  0  0  0  0  0  0
   -2.6521   -2.9030   -1.0425 H   0  0  0  0  0  0  0  0  0  0  0  0
   -2.9309    1.7997    1.4521 H   0  0  0  0  0  0  0  0  0  0  0  0
   -1.7759    0.5253    1.1729 H   0  0  0  0  0  0  0  0  0  0  0  0
   -4.2710   -1.1547   -1.3044 H   0  0  0  0  0  0  0  0  0  0  0  0
   -2.6854   -0.5072   -1.5919 H   0  0  0  0  0  0  0  0  0  0  0  0
   -4.1588   -0.2305    1.0882 H   0  0  0  0  0  0  0  0  0  0  0  0
   -4.4466    0.8670   -0.2485 H   0  0  0  0  0  0  0  0  0  0  0  0
    4.1152    0.5458   -1.0150 H   0  0  0  0  0  0  0  0  0  0  0  0
    3.0095    0.7531   -2.4207 H   0  0  0  0  0  0  0  0  0  0  0  0
    4.0927   -0.6202   -2.3327 H   0  0  0  0  0  0  0  0  0  0  0  0
    3.7694   -1.6520    0.6838 H   0  0  0  0  0  0  0  0  0  0  0  0
    2.9267   -1.3687    2.2526 H   0  0  0  0  0  0  0  0  0  0  0  0
    4.4500   -0.5776    1.9014 H   0  0  0  0  0  0  0  0  0  0  0  0
  1  3  1  0  0  0  0
  1 15  1  0  0  0  0
  2  3  1  0  0  0  0
  2 16  1  0  0  0  0
  3  4  1  0  0  0  0
  3  5  1  0  0  0  0
  4  6  1  0  0  0  0
  4 17  1  0  0  0  0
  4 18  1  0  0  0  0
  5  7  1  0  0  0  0
  5 19  1  0  0  0  0
  5 20  1  0  0  0  0
  6  8  1  0  0  0  0
  6 21  1  0  0  0  0
  6 22  1  0  0  0  0
  7  9  1  0  0  0  0
  7 23  1  0  0  0  0
  7 24  1  0  0  0  0
  8 10  1  0  0  0  0
  8 25  1  0  0  0  0
  8 26  1  0  0  0  0
  9 11  1  0  0  0  0
  9 27  1  0  0  0  0
  9 28  1  0  0  0  0
 10 12  1  0  0  0  0
 10 29  1  0  0  0  0
 10 30  1  0  0  0  0
 11 13  1  0  0  0  0
 11 31  1  0  0  0  0
 11 32  1  0  0  0  0
 12 14  1  0  0  0  0
 12 33  1  0  0  0  0
 12 34  1  0  0  0  0
 13 14  1  0  0  0  0
 13 35  1  0  0  0  0
 13 36  1  0  0  0  0
 14 37  1  0  0  0  0
 14 38  1  0  0  0  0
 15 39  1  0  0  0  0
 15 40  1  0  0  0  0
 15 41  1  0  0  0  0
 16 42  1  0  0  0  0
 16 43  1  0  0  0  0
 16 44  1  0  0  0  0
M  END
> <PUBCHEM_COMPOUND_CID>
70368

> <PUBCHEM_CONFORMER_RMSD>
0.6

> <PUBCHEM_CONFORMER_DIVERSEORDER>
1
9
21
15
16
10
19
17
6
7
4
23
14
2
5
12
3
13
8
20
18
22
11

> <PUBCHEM_MMFF94_PARTIAL_CHARGES>
5
1 -0.56
15 0.28
16 0.28
2 -0.56
3 0.56

> <PUBCHEM_EFFECTIVE_ROTOR_COUNT>
4.4

> <PUBCHEM_PHARMACOPHORE_FEATURES>
2
1 1 acceptor
1 2 acceptor

> <PUBCHEM_HEAVY_ATOM_COUNT>
16

> <PUBCHEM_ATOM_DEF_STEREO_COUNT>
0

> <PUBCHEM_ATOM_UDEF_STEREO_COUNT>
0

> <PUBCHEM_BOND_DEF_STEREO_COUNT>
0

> <PUBCHEM_BOND_UDEF_STEREO_COUNT>
0

> <PUBCHEM_ISOTOPIC_ATOM_COUNT>
0

> <PUBCHEM_COMPONENT_COUNT>
1

> <PUBCHEM_CACTVS_TAUTO_COUNT>
1

> <PUBCHEM_CONFORMER_ID>
000112E000000001

> <PUBCHEM_MMFF94_ENERGY>
44.0887

> <PUBCHEM_FEATURE_SELFOVERLAP>
10.192

> <PUBCHEM_SHAPE_FINGERPRINT>
104564 63 18337963294105359261
10730089 88 17913800278200320158
10759866 29 17822581525168791126
11132069 177 18343580716296927145
11578080 2 17461124817174702276
12553582 1 18410862053304180157
12596599 1 18060423534172289439
13140716 1 18338516455997027505
13538477 17 18186806872372834326
14178342 30 17979914908605636248
1420 336 18339645663065630387
14251711 518 17764868391660325279
14251745 187 18129679512163218406
15775835 57 18261118452346873069
16945 1 18408606933090118601
19930374 2 17537703409414516300
20233049 118 18262243338578345030
20261772 1 18339375084394478961
20388701 513 18340473517790362496
20905425 154 17692817407671810095
21249577 28 18334011687737586505
21634736 98 18336838605231776780
22802520 49 18059305253084152199
232386 152 18408595963880833672
2334 1 18122063375632619697
23402539 116 18128232619164430375
23419403 2 17409879951716122297
23557571 272 17702656804132835659
23559900 14 18272376313671017836
23598291 2 17242462607522685308
2748010 2 18122343746818481563
44154327 71 18192724336722001045
5939293 188 18269271446841369753
6438718 38 18131632270884405047
81228 2 18412551985100369248

> <PUBCHEM_SHAPE_MULTIPOLES>
317.53
6.14
2.79
1.21
0.58
0.94
-0.16
-1.64
-0.44
-1.78
0.21
1.19
-0.16
-0.44

> <PUBCHEM_SHAPE_SELFOVERLAP>
601.505

> <PUBCHEM_SHAPE_VOLUME>
195.1

> <PUBCHEM_COORDINATE_TYPE>
2
5
10

$$$$
