70456
  -OEChem-11232109443D

 39 38  0     0  0  0  0  0  0999 V2000
    1.7793   -1.6600    0.7043 O   0  0  0  0  0  0  0  0  0  0  0  0
    3.0960    0.1094   -0.0128 N   0  0  0  0  0  0  0  0  0  0  0  0
   -1.9369    0.3068   -0.1110 C   0  0  0  0  0  0  0  0  0  0  0  0
   -3.2231   -0.4841    0.1374 C   0  0  0  0  0  0  0  0  0  0  0  0
   -0.6670   -0.4645    0.2594 C   0  0  0  0  0  0  0  0  0  0  0  0
   -4.4599    0.3439   -0.2193 C   0  0  0  0  0  0  0  0  0  0  0  0
    0.6217    0.2978   -0.0570 C   0  0  0  0  0  0  0  0  0  0  0  0
   -5.7473   -0.4322    0.0586 C   0  0  0  0  0  0  0  0  0  0  0  0
    1.8726   -0.5169    0.2493 C   0  0  0  0  0  0  0  0  0  0  0  0
    3.1823    1.4615   -0.5508 C   0  0  0  0  0  0  0  0  0  0  0  0
    4.3793   -0.5443    0.2331 C   0  0  0  0  0  0  0  0  0  0  0  0
   -6.9791    0.3993   -0.2620 C   0  0  0  0  0  0  0  0  0  0  0  0
    3.2293    2.4964    0.5542 C   0  0  0  0  0  0  0  0  0  0  0  0
    4.8526   -1.3129   -0.9834 C   0  0  0  0  0  0  0  0  0  0  0  0
   -1.9658    1.2406    0.4641 H   0  0  0  0  0  0  0  0  0  0  0  0
   -1.8892    0.5890   -1.1702 H   0  0  0  0  0  0  0  0  0  0  0  0
   -0.6634   -1.4211   -0.2788 H   0  0  0  0  0  0  0  0  0  0  0  0
   -0.6924   -0.7108    1.3285 H   0  0  0  0  0  0  0  0  0  0  0  0
   -3.2094   -1.4046   -0.4583 H   0  0  0  0  0  0  0  0  0  0  0  0
   -3.2698   -0.7811    1.1920 H   0  0  0  0  0  0  0  0  0  0  0  0
   -4.4595    1.2729    0.3638 H   0  0  0  0  0  0  0  0  0  0  0  0
   -4.4212    0.6270   -1.2782 H   0  0  0  0  0  0  0  0  0  0  0  0
    0.6348    1.2260    0.5197 H   0  0  0  0  0  0  0  0  0  0  0  0
    0.6150    0.5369   -1.1256 H   0  0  0  0  0  0  0  0  0  0  0  0
   -5.7819   -0.7319    1.1126 H   0  0  0  0  0  0  0  0  0  0  0  0
   -5.7651   -1.3500   -0.5405 H   0  0  0  0  0  0  0  0  0  0  0  0
    2.3425    1.6758   -1.2150 H   0  0  0  0  0  0  0  0  0  0  0  0
    4.0823    1.5401   -1.1720 H   0  0  0  0  0  0  0  0  0  0  0  0
    4.2561   -1.2451    1.0665 H   0  0  0  0  0  0  0  0  0  0  0  0
    5.1211    0.2009    0.5396 H   0  0  0  0  0  0  0  0  0  0  0  0
   -6.9916    0.6908   -1.3170 H   0  0  0  0  0  0  0  0  0  0  0  0
   -7.0080    1.3087    0.3466 H   0  0  0  0  0  0  0  0  0  0  0  0
   -7.8879   -0.1753   -0.0574 H   0  0  0  0  0  0  0  0  0  0  0  0
    3.2751    3.5035    0.1279 H   0  0  0  0  0  0  0  0  0  0  0  0
    4.1143    2.3591    1.1845 H   0  0  0  0  0  0  0  0  0  0  0  0
    2.3541    2.4446    1.2076 H   0  0  0  0  0  0  0  0  0  0  0  0
    5.8033   -1.8123   -0.7726 H   0  0  0  0  0  0  0  0  0  0  0  0
    4.9997   -0.6488   -1.8411 H   0  0  0  0  0  0  0  0  0  0  0  0
    4.1238   -2.0762   -1.2759 H   0  0  0  0  0  0  0  0  0  0  0  0
  1  9  2  0  0  0  0
  2  9  1  0  0  0  0
  2 10  1  0  0  0  0
  2 11  1  0  0  0  0
  3  4  1  0  0  0  0
  3  5  1  0  0  0  0
  3 15  1  0  0  0  0
  3 16  1  0  0  0  0
  4  6  1  0  0  0  0
  4 19  1  0  0  0  0
  4 20  1  0  0  0  0
  5  7  1  0  0  0  0
  5 17  1  0  0  0  0
  5 18  1  0  0  0  0
  6  8  1  0  0  0  0
  6 21  1  0  0  0  0
  6 22  1  0  0  0  0
  7  9  1  0  0  0  0
  7 23  1  0  0  0  0
  7 24  1  0  0  0  0
  8 12  1  0  0  0  0
  8 25  1  0  0  0  0
  8 26  1  0  0  0  0
 10 13  1  0  0  0  0
 10 27  1  0  0  0  0
 10 28  1  0  0  0  0
 11 14  1  0  0  0  0
 11 29  1  0  0  0  0
 11 30  1  0  0  0  0
 12 31  1  0  0  0  0
 12 32  1  0  0  0  0
 12 33  1  0  0  0  0
 13 34  1  0  0  0  0
 13 35  1  0  0  0  0
 13 36  1  0  0  0  0
 14 37  1  0  0  0  0
 14 38  1  0  0  0  0
 14 39  1  0  0  0  0
M  END
> <PUBCHEM_COMPOUND_CID>
70456

> <PUBCHEM_CONFORMER_RMSD>
0.8

> <PUBCHEM_CONFORMER_DIVERSEORDER>
1
221
276
46
139
162
174
284
144
132
166
216
265
281
279
4
11
278
142
6
71
165
131
52
77
124
59
172
187
31
160
34
55
253
81
101
272
115
252
233
226
37
70
171
98
83
210
238
277
73
30
65
62
259
188
270
243
186
91
219
5
104
68
202
15
212
264
16
87
94
163
200
54
191
23
28
114
245
35
235
67
86
203
225
189
130
230
135
148
234
14
155
207
170
158
19
248
41
75
80
76
209
74
140
184
90
72
9
154
7
20
78
137
224
183
185
2
231
261
280
195
208
136
177
27
263
108
246
175
254
49
196
105
260
271
38
178
121
69
56
176
85
25
150
126
113
89
182
64
239
143
146
116
227
102
211
251
42
128
194
33
204
79
32
51
205
106
122
61
147
88
110
95
129
125
197
29
92
8
267
242
164
17
82
3
167
255
274
22
12
134
273
223
96
43
217
63
45
26
215
247
232
256
236
39
138
151
44
84
282
213
120
100
157
190
192
220
13
48
103
153
111
156
161
214
228
193
117
109
66
181
198
283
258
218
24
57
250
199
93
240
229
47
21
50
112
241
99
18
10
268
58
269
119
133
266
123
179
257
159
141
118
168
152
275
127
36
173
249
40
149
53
206
60
222
180
244
262
97
107
169
237
145
201

> <PUBCHEM_MMFF94_PARTIAL_CHARGES>
6
1 -0.57
10 0.3
11 0.3
2 -0.66
7 0.06
9 0.57

> <PUBCHEM_EFFECTIVE_ROTOR_COUNT>
9

> <PUBCHEM_PHARMACOPHORE_FEATURES>
4
1 1 acceptor
1 12 hydrophobe
3 3 5 7 hydrophobe
3 4 6 8 hydrophobe

> <PUBCHEM_HEAVY_ATOM_COUNT>
14

> <PUBCHEM_ATOM_DEF_STEREO_COUNT>
0

> <PUBCHEM_ATOM_UDEF_STEREO_COUNT>
0

> <PUBCHEM_BOND_DEF_STEREO_COUNT>
0

> <PUBCHEM_BOND_UDEF_STEREO_COUNT>
0

> <PUBCHEM_ISOTOPIC_ATOM_COUNT>
0

> <PUBCHEM_COMPONENT_COUNT>
1

> <PUBCHEM_CACTVS_TAUTO_COUNT>
1

> <PUBCHEM_CONFORMER_ID>
0001133800000001

> <PUBCHEM_MMFF94_ENERGY>
7.4879

> <PUBCHEM_FEATURE_SELFOVERLAP>
20.311

> <PUBCHEM_SHAPE_FINGERPRINT>
11287383 113 18335139830213482691
12616971 3 18060131064010768637
13081056 2 18334573551338906925
13167372 99 18201443537024109801
13836976 161 17988927764606274990
13955234 65 18335414651732425714
14123238 8 16298386855785561239
14170010 4 18343581859312343264
1420 363 18113343011837836731
15242439 84 18114186332433898363
17834072 33 18342454881099469567
17834072 8 18334862705416371566
17834076 25 16660084395244248495
17844677 252 18412833473663848281
18186145 218 18113892788651761966
20621476 8 18340208480371002653
20645477 70 18413672404808446014
212847 35 18333733541682666892
221357 26 18411139108580351268
23402539 116 16486968480448604197
23557571 272 17095520648229551855
29717793 49 17989209226708301645
3060560 45 18410294692725535062
3545911 37 17967816042183959435
42788 4 18408322186202825245
522135 26 18342176678492218980
5374978 207 18113891671960518529
542803 24 18060422422055367081
54446538 1 18343019974131100673
9999458 23 18260830414765967182

> <PUBCHEM_SHAPE_MULTIPOLES>
277.26
14.91
1.62
0.77
22.95
0.85
0.05
-0.19
2.08
-2.83
-0.14
-0.45
-0.06
0.5

> <PUBCHEM_SHAPE_SELFOVERLAP>
504.165

> <PUBCHEM_SHAPE_VOLUME>
177.7

> <PUBCHEM_COORDINATE_TYPE>
2
5
10

$$$$
