70506
  -OEChem-11232109033D

 23 24  0     1  0  0  0  0  0999 V2000
    2.1711    0.9706    0.3204 O   0  0  0  0  0  0  0  0  0  0  0  0
    1.3682    0.0640   -0.4086 C   0  0  1  0  0  0  0  0  0  0  0  0
    1.5218   -1.3668    0.1327 C   0  0  0  0  0  0  0  0  0  0  0  0
    0.1792   -2.0700   -0.1086 C   0  0  0  0  0  0  0  0  0  0  0  0
   -0.0949    0.3013   -0.1858 C   0  0  0  0  0  0  0  0  0  0  0  0
   -0.7693   -0.9153   -0.0178 C   0  0  0  0  0  0  0  0  0  0  0  0
   -0.7840    1.5033   -0.1811 C   0  0  0  0  0  0  0  0  0  0  0  0
   -2.1423   -0.9544    0.1584 C   0  0  0  0  0  0  0  0  0  0  0  0
   -2.1674    1.4739    0.0087 C   0  0  0  0  0  0  0  0  0  0  0  0
   -2.8416    0.2542    0.1775 C   0  0  0  0  0  0  0  0  0  0  0  0
    3.5593    0.7393    0.1041 C   0  0  0  0  0  0  0  0  0  0  0  0
    1.5821    0.1177   -1.4835 H   0  0  0  0  0  0  0  0  0  0  0  0
    1.7354   -1.3460    1.2111 H   0  0  0  0  0  0  0  0  0  0  0  0
    2.3506   -1.9047   -0.3401 H   0  0  0  0  0  0  0  0  0  0  0  0
   -0.0142   -2.8321    0.6513 H   0  0  0  0  0  0  0  0  0  0  0  0
    0.1373   -2.5150   -1.1080 H   0  0  0  0  0  0  0  0  0  0  0  0
   -0.2690    2.4471   -0.3243 H   0  0  0  0  0  0  0  0  0  0  0  0
   -2.6667   -1.8963    0.2776 H   0  0  0  0  0  0  0  0  0  0  0  0
   -2.7299    2.4037    0.0196 H   0  0  0  0  0  0  0  0  0  0  0  0
   -3.9191    0.2516    0.3178 H   0  0  0  0  0  0  0  0  0  0  0  0
    3.7954    0.7536   -0.9645 H   0  0  0  0  0  0  0  0  0  0  0  0
    3.8771   -0.2062    0.5522 H   0  0  0  0  0  0  0  0  0  0  0  0
    4.1152    1.5461    0.5900 H   0  0  0  0  0  0  0  0  0  0  0  0
  1  2  1  0  0  0  0
  1 11  1  0  0  0  0
  2  3  1  0  0  0  0
  2  5  1  0  0  0  0
  2 12  1  0  0  0  0
  3  4  1  0  0  0  0
  3 13  1  0  0  0  0
  3 14  1  0  0  0  0
  4  6  1  0  0  0  0
  4 15  1  0  0  0  0
  4 16  1  0  0  0  0
  5  6  1  0  0  0  0
  5  7  2  0  0  0  0
  6  8  2  0  0  0  0
  7  9  1  0  0  0  0
  7 17  1  0  0  0  0
  8 10  1  0  0  0  0
  8 18  1  0  0  0  0
  9 10  2  0  0  0  0
  9 19  1  0  0  0  0
 10 20  1  0  0  0  0
 11 21  1  0  0  0  0
 11 22  1  0  0  0  0
 11 23  1  0  0  0  0
M  END
> <PUBCHEM_COMPOUND_CID>
70506

> <PUBCHEM_CONFORMER_RMSD>
0.4

> <PUBCHEM_CONFORMER_DIVERSEORDER>
1
2
3

> <PUBCHEM_MMFF94_PARTIAL_CHARGES>
14
1 -0.56
10 -0.15
11 0.28
17 0.15
18 0.15
19 0.15
2 0.42
20 0.15
4 0.14
5 -0.14
6 -0.14
7 -0.15
8 -0.15
9 -0.15

> <PUBCHEM_EFFECTIVE_ROTOR_COUNT>
1.6

> <PUBCHEM_PHARMACOPHORE_FEATURES>
3
1 1 acceptor
5 2 3 4 5 6 rings
6 5 6 7 8 9 10 rings

> <PUBCHEM_HEAVY_ATOM_COUNT>
11

> <PUBCHEM_ATOM_DEF_STEREO_COUNT>
0

> <PUBCHEM_ATOM_UDEF_STEREO_COUNT>
1

> <PUBCHEM_BOND_DEF_STEREO_COUNT>
0

> <PUBCHEM_BOND_UDEF_STEREO_COUNT>
0

> <PUBCHEM_ISOTOPIC_ATOM_COUNT>
0

> <PUBCHEM_COMPONENT_COUNT>
1

> <PUBCHEM_CACTVS_TAUTO_COUNT>
1

> <PUBCHEM_CONFORMER_ID>
0001136A00000001

> <PUBCHEM_MMFF94_ENERGY>
32.458

> <PUBCHEM_FEATURE_SELFOVERLAP>
15.306

> <PUBCHEM_SHAPE_FINGERPRINT>
10857977 72 18335700597922649505
12524768 44 18265057920836387031
13024252 1 13479118112567525213
13380535 21 18339657632659423382
13380535 76 18409726244517421491
14325111 11 18410856555677307060
15775835 57 18341898480296019440
16945 1 18336272339547512047
193761 8 17977947886592626421
19973954 147 18195810661138699217
20645464 45 18202286926502612988
20871998 184 18127417971142328414
21040471 1 18409736174518590310
21501502 16 18339357444631588339
23235685 24 18409162220843171276
23402539 116 18199456847834067335
23402655 69 18268413669628184893
23463225 33 18261106349255626994
23552423 10 18189059707010082263
2748010 2 18337115557671020223
369184 2 18408319969361507513
5084963 1 18202003205004857434
528886 8 18411132558723147515
53812653 166 18343019999346925688
6333449 129 18341328984838754253
7364860 26 18198342845123823350

> <PUBCHEM_SHAPE_MULTIPOLES>
220.51
4.23
1.89
0.65
1.82
0.43
0.01
-1.48
-0.42
-0.08
0.01
0.02
0
0.1

> <PUBCHEM_SHAPE_SELFOVERLAP>
469.75

> <PUBCHEM_SHAPE_VOLUME>
126

> <PUBCHEM_COORDINATE_TYPE>
2
5
10

$$$$
