7057943
  -OEChem-11232109063D

 29 29  0     1  0  0  0  0  0999 V2000
    0.6372   -2.2430   -0.0711 O   0  0  0  0  0  0  0  0  0  0  0  0
    0.6298    0.1434   -0.4407 C   0  0  1  0  0  0  0  0  0  0  0  0
   -2.3551    0.0641   -0.2403 C   0  0  2  0  0  0  0  0  0  0  0  0
   -0.0922   -1.0478    0.2108 C   0  0  1  0  0  0  0  0  0  0  0  0
   -1.5135   -1.2129   -0.3365 C   0  0  0  0  0  0  0  0  0  0  0  0
   -0.1990    1.4296   -0.3354 C   0  0  0  0  0  0  0  0  0  0  0  0
   -1.6140    1.2443   -0.8817 C   0  0  0  0  0  0  0  0  0  0  0  0
    1.9823    0.3638    0.1721 C   0  0  0  0  0  0  0  0  0  0  0  0
   -2.7643    0.3652    1.2036 C   0  0  0  0  0  0  0  0  0  0  0  0
    3.1567    0.2285   -0.7512 C   0  0  0  0  0  0  0  0  0  0  0  0
    2.1320    0.6649    1.4704 C   0  0  0  0  0  0  0  0  0  0  0  0
    0.7646   -0.0882   -1.5071 H   0  0  0  0  0  0  0  0  0  0  0  0
   -3.2814   -0.0991   -0.8065 H   0  0  0  0  0  0  0  0  0  0  0  0
   -0.1461   -0.9480    1.3009 H   0  0  0  0  0  0  0  0  0  0  0  0
   -2.0119   -2.0436    0.1793 H   0  0  0  0  0  0  0  0  0  0  0  0
   -1.4543   -1.5250   -1.3884 H   0  0  0  0  0  0  0  0  0  0  0  0
    0.2926    2.2352   -0.8963 H   0  0  0  0  0  0  0  0  0  0  0  0
   -0.2696    1.7791    0.7015 H   0  0  0  0  0  0  0  0  0  0  0  0
   -2.1850    2.1702   -0.7447 H   0  0  0  0  0  0  0  0  0  0  0  0
   -1.5522    1.0757   -1.9647 H   0  0  0  0  0  0  0  0  0  0  0  0
   -3.3352   -0.4702    1.6228 H   0  0  0  0  0  0  0  0  0  0  0  0
   -1.9030    0.5403    1.8549 H   0  0  0  0  0  0  0  0  0  0  0  0
   -3.4010    1.2555    1.2447 H   0  0  0  0  0  0  0  0  0  0  0  0
    1.4802   -2.1993    0.4106 H   0  0  0  0  0  0  0  0  0  0  0  0
    3.1904   -0.7783   -1.1801 H   0  0  0  0  0  0  0  0  0  0  0  0
    3.0836    0.9538   -1.5681 H   0  0  0  0  0  0  0  0  0  0  0  0
    4.1076    0.4022   -0.2365 H   0  0  0  0  0  0  0  0  0  0  0  0
    3.1171    0.8215    1.8981 H   0  0  0  0  0  0  0  0  0  0  0  0
    1.2873    0.7618    2.1436 H   0  0  0  0  0  0  0  0  0  0  0  0
  1  4  1  0  0  0  0
  1 24  1  0  0  0  0
  2  4  1  0  0  0  0
  2  6  1  0  0  0  0
  2  8  1  0  0  0  0
  2 12  1  0  0  0  0
  3  5  1  0  0  0  0
  3  7  1  0  0  0  0
  3  9  1  0  0  0  0
  3 13  1  0  0  0  0
  4  5  1  0  0  0  0
  4 14  1  0  0  0  0
  5 15  1  0  0  0  0
  5 16  1  0  0  0  0
  6  7  1  0  0  0  0
  6 17  1  0  0  0  0
  6 18  1  0  0  0  0
  7 19  1  0  0  0  0
  7 20  1  0  0  0  0
  8 10  1  0  0  0  0
  8 11  2  0  0  0  0
  9 21  1  0  0  0  0
  9 22  1  0  0  0  0
  9 23  1  0  0  0  0
 10 25  1  0  0  0  0
 10 26  1  0  0  0  0
 10 27  1  0  0  0  0
 11 28  1  0  0  0  0
 11 29  1  0  0  0  0
M  END
> <PUBCHEM_COMPOUND_CID>
7057943

> <PUBCHEM_CONFORMER_RMSD>
0.6

> <PUBCHEM_CONFORMER_DIVERSEORDER>
1
7
6
3
2
4
5

> <PUBCHEM_MMFF94_PARTIAL_CHARGES>
9
1 -0.68
10 0.14
11 -0.3
2 0.14
24 0.4
28 0.15
29 0.15
4 0.28
8 -0.28

> <PUBCHEM_EFFECTIVE_ROTOR_COUNT>
2.2

> <PUBCHEM_PHARMACOPHORE_FEATURES>
3
1 1 acceptor
1 1 donor
6 2 3 4 5 6 7 rings

> <PUBCHEM_HEAVY_ATOM_COUNT>
11

> <PUBCHEM_ATOM_DEF_STEREO_COUNT>
3

> <PUBCHEM_ATOM_UDEF_STEREO_COUNT>
0

> <PUBCHEM_BOND_DEF_STEREO_COUNT>
0

> <PUBCHEM_BOND_UDEF_STEREO_COUNT>
0

> <PUBCHEM_ISOTOPIC_ATOM_COUNT>
0

> <PUBCHEM_COMPONENT_COUNT>
1

> <PUBCHEM_CACTVS_TAUTO_COUNT>
1

> <PUBCHEM_CONFORMER_ID>
006BB21700000001

> <PUBCHEM_MMFF94_ENERGY>
18.4965

> <PUBCHEM_FEATURE_SELFOVERLAP>
15.223

> <PUBCHEM_SHAPE_FINGERPRINT>
10857977 72 18186806893816041937
12423570 1 7993253232984311893
12932764 1 18413101762578919468
15310529 11 16298378084845274892
15775835 57 18342179950977658779
16945 1 18335413582269341309
20511035 2 17831848062970007301
20645464 45 18058433456696415632
20653085 51 16128384795424653553
21040471 1 18336816524809851212
21922407 69 14924809808080810157
23235685 24 18408045108460476365
23419403 2 11833004813334018333
23552423 10 17969778584012867862
2748010 2 18118962482201336293
369184 2 18269820034244649313
5084963 1 18272087248648409252
528886 8 18409454699525931862
54338 74 17903334237284170831
81228 2 17907569581923763362

> <PUBCHEM_SHAPE_MULTIPOLES>
220.51
4.09
1.59
1.12
0.9
0.64
-0.35
-0.7
-0.42
-0.21
0.18
0.1
-0.27
0.15

> <PUBCHEM_SHAPE_SELFOVERLAP>
431.561

> <PUBCHEM_SHAPE_VOLUME>
132.7

> <PUBCHEM_COORDINATE_TYPE>
2
5
10

$$$$
