7057971
  -OEChem-11232109423D

 24 24  0     1  0  0  0  0  0999 V2000
   -0.8947    0.7008    0.0674 O   0  0  0  0  0  0  0  0  0  0  0  0
   -2.9725    1.6352   -0.2062 O   0  0  0  0  0  0  0  0  0  0  0  0
   -0.4022   -0.6096    0.3794 C   0  0  2  0  0  0  0  0  0  0  0  0
    0.9388   -0.8299   -0.2942 C   0  0  0  0  0  0  0  0  0  0  0  0
   -1.4816   -1.5449   -0.1174 C   0  0  0  0  0  0  0  0  0  0  0  0
    2.0074    0.1091    0.2648 C   0  0  0  0  0  0  0  0  0  0  0  0
   -2.7389   -0.7507    0.1455 C   0  0  0  0  0  0  0  0  0  0  0  0
    3.3648   -0.1393   -0.3926 C   0  0  0  0  0  0  0  0  0  0  0  0
   -2.2593    0.6595   -0.0314 C   0  0  0  0  0  0  0  0  0  0  0  0
    4.4381    0.7698    0.1846 C   0  0  0  0  0  0  0  0  0  0  0  0
   -0.3004   -0.6789    1.4698 H   0  0  0  0  0  0  0  0  0  0  0  0
    0.8490   -0.6534   -1.3736 H   0  0  0  0  0  0  0  0  0  0  0  0
    1.2545   -1.8707   -0.1540 H   0  0  0  0  0  0  0  0  0  0  0  0
   -1.4718   -2.5166    0.3841 H   0  0  0  0  0  0  0  0  0  0  0  0
   -1.3822   -1.7195   -1.1961 H   0  0  0  0  0  0  0  0  0  0  0  0
    1.7123    1.1530    0.1042 H   0  0  0  0  0  0  0  0  0  0  0  0
    2.0945   -0.0383    1.3483 H   0  0  0  0  0  0  0  0  0  0  0  0
   -3.0962   -0.8811    1.1709 H   0  0  0  0  0  0  0  0  0  0  0  0
   -3.5248   -0.9937   -0.5729 H   0  0  0  0  0  0  0  0  0  0  0  0
    3.2916    0.0299   -1.4732 H   0  0  0  0  0  0  0  0  0  0  0  0
    3.6643   -1.1837   -0.2470 H   0  0  0  0  0  0  0  0  0  0  0  0
    4.5594    0.6006    1.2594 H   0  0  0  0  0  0  0  0  0  0  0  0
    4.1852    1.8234    0.0288 H   0  0  0  0  0  0  0  0  0  0  0  0
    5.3999    0.5760   -0.3003 H   0  0  0  0  0  0  0  0  0  0  0  0
  1  3  1  0  0  0  0
  1  9  1  0  0  0  0
  2  9  2  0  0  0  0
  3  4  1  0  0  0  0
  3  5  1  0  0  0  0
  3 11  1  0  0  0  0
  4  6  1  0  0  0  0
  4 12  1  0  0  0  0
  4 13  1  0  0  0  0
  5  7  1  0  0  0  0
  5 14  1  0  0  0  0
  5 15  1  0  0  0  0
  6  8  1  0  0  0  0
  6 16  1  0  0  0  0
  6 17  1  0  0  0  0
  7  9  1  0  0  0  0
  7 18  1  0  0  0  0
  7 19  1  0  0  0  0
  8 10  1  0  0  0  0
  8 20  1  0  0  0  0
  8 21  1  0  0  0  0
 10 22  1  0  0  0  0
 10 23  1  0  0  0  0
 10 24  1  0  0  0  0
M  END
> <PUBCHEM_COMPOUND_CID>
7057971

> <PUBCHEM_CONFORMER_RMSD>
0.6

> <PUBCHEM_CONFORMER_DIVERSEORDER>
1
16
8
2
14
5
3
15
13
6
10
7
9
12
4
11

> <PUBCHEM_MMFF94_PARTIAL_CHARGES>
5
1 -0.43
2 -0.57
3 0.28
7 0.06
9 0.66

> <PUBCHEM_EFFECTIVE_ROTOR_COUNT>
3.8

> <PUBCHEM_PHARMACOPHORE_FEATURES>
3
1 10 hydrophobe
1 2 acceptor
5 1 3 5 7 9 rings

> <PUBCHEM_HEAVY_ATOM_COUNT>
10

> <PUBCHEM_ATOM_DEF_STEREO_COUNT>
1

> <PUBCHEM_ATOM_UDEF_STEREO_COUNT>
0

> <PUBCHEM_BOND_DEF_STEREO_COUNT>
0

> <PUBCHEM_BOND_UDEF_STEREO_COUNT>
0

> <PUBCHEM_ISOTOPIC_ATOM_COUNT>
0

> <PUBCHEM_COMPONENT_COUNT>
1

> <PUBCHEM_CACTVS_TAUTO_COUNT>
2

> <PUBCHEM_CONFORMER_ID>
006BB23300000001

> <PUBCHEM_MMFF94_ENERGY>
3.2999

> <PUBCHEM_FEATURE_SELFOVERLAP>
15.223

> <PUBCHEM_SHAPE_FINGERPRINT>
10608611 8 18341893008935095072
12162725 195 18187649158435665836
12932764 1 17846491565140450650
13024252 1 17894630387701970347
14325111 11 18410856551466735782
14390081 3 18411699863615118818
14897335 6 18337104575313147542
15775835 57 18259984834120204856
18186145 218 17917443025032493186
20645464 45 18202008724148667527
20645477 56 18411422803901913060
20645477 70 17203338767218731070
20871998 184 18199756997508169295
23402539 116 18337382850956207743
23500284 214 18340213994344269425
3248919 1 17240771709079020098
369184 2 15864068780150161635
6333449 129 18413669119205709791

> <PUBCHEM_SHAPE_MULTIPOLES>
194.06
6.72
1.36
0.66
6.64
0.11
0
2.02
-0.07
-1.1
-0.08
0.09
-0.03
0.23

> <PUBCHEM_SHAPE_SELFOVERLAP>
376.26

> <PUBCHEM_SHAPE_VOLUME>
119.7

> <PUBCHEM_COORDINATE_TYPE>
2
5
10

$$$$
