7076215
  -OEChem-11232108493D

 40 40  0     1  0  0  0  0  0999 V2000
    0.8996   -0.7694    0.1223 O   0  0  0  0  0  0  0  0  0  0  0  0
    2.1943    0.0429   -1.6048 O   0  0  0  0  0  0  0  0  0  0  0  0
    4.4457   -0.3629   -0.1999 O   0  0  0  0  0  0  0  0  0  0  0  0
   -1.4892   -0.5812    0.4467 C   0  0  1  0  0  0  0  0  0  0  0  0
   -0.2550   -0.0467   -0.2982 C   0  0  1  0  0  0  0  0  0  0  0  0
   -2.7298    0.2608    0.1217 C   0  0  0  0  0  0  0  0  0  0  0  0
   -1.2738    2.2768   -0.3530 C   0  0  1  0  0  0  0  0  0  0  0  0
   -0.0323    1.4422   -0.0233 C   0  0  0  0  0  0  0  0  0  0  0  0
   -2.4985    1.7444    0.4002 C   0  0  0  0  0  0  0  0  0  0  0  0
   -1.7462   -2.0541    0.1167 C   0  0  0  0  0  0  0  0  0  0  0  0
   -1.0368    3.7499   -0.0253 C   0  0  0  0  0  0  0  0  0  0  0  0
   -2.8985   -2.5957    0.9572 C   0  0  0  0  0  0  0  0  0  0  0  0
   -2.0365   -2.2243   -1.3715 C   0  0  0  0  0  0  0  0  0  0  0  0
    2.0771   -0.4068   -0.4721 C   0  0  0  0  0  0  0  0  0  0  0  0
    3.2336   -0.6722    0.4703 C   0  0  2  0  0  0  0  0  0  0  0  0
    3.1464    0.1963    1.7130 C   0  0  0  0  0  0  0  0  0  0  0  0
   -1.2884   -0.5101    1.5255 H   0  0  0  0  0  0  0  0  0  0  0  0
   -0.3742   -0.1639   -1.3805 H   0  0  0  0  0  0  0  0  0  0  0  0
   -3.5914   -0.0546    0.7187 H   0  0  0  0  0  0  0  0  0  0  0  0
   -3.0155    0.1760   -0.9312 H   0  0  0  0  0  0  0  0  0  0  0  0
   -1.4680    2.1989   -1.4311 H   0  0  0  0  0  0  0  0  0  0  0  0
    0.8135    1.8342   -0.5989 H   0  0  0  0  0  0  0  0  0  0  0  0
    0.2447    1.5789    1.0312 H   0  0  0  0  0  0  0  0  0  0  0  0
   -3.3913    2.3110    0.1090 H   0  0  0  0  0  0  0  0  0  0  0  0
   -2.3676    1.8929    1.4799 H   0  0  0  0  0  0  0  0  0  0  0  0
   -0.8527   -2.6407    0.3651 H   0  0  0  0  0  0  0  0  0  0  0  0
   -0.1825    4.1406   -0.5880 H   0  0  0  0  0  0  0  0  0  0  0  0
   -1.9135    4.3515   -0.2874 H   0  0  0  0  0  0  0  0  0  0  0  0
   -0.8342    3.8935    1.0414 H   0  0  0  0  0  0  0  0  0  0  0  0
   -2.9480   -3.6865    0.8617 H   0  0  0  0  0  0  0  0  0  0  0  0
   -2.7599   -2.3677    2.0192 H   0  0  0  0  0  0  0  0  0  0  0  0
   -3.8722   -2.2094    0.6407 H   0  0  0  0  0  0  0  0  0  0  0  0
   -2.9555   -1.7325   -1.7000 H   0  0  0  0  0  0  0  0  0  0  0  0
   -2.1805   -3.2916   -1.5841 H   0  0  0  0  0  0  0  0  0  0  0  0
   -1.2123   -1.9081   -2.0140 H   0  0  0  0  0  0  0  0  0  0  0  0
    3.2507   -1.7351    0.7325 H   0  0  0  0  0  0  0  0  0  0  0  0
    2.2520   -0.0297    2.3018 H   0  0  0  0  0  0  0  0  0  0  0  0
    4.0276    0.0509    2.3468 H   0  0  0  0  0  0  0  0  0  0  0  0
    3.1177    1.2590    1.4463 H   0  0  0  0  0  0  0  0  0  0  0  0
    4.5414   -0.9911   -0.9362 H   0  0  0  0  0  0  0  0  0  0  0  0
  1  5  1  0  0  0  0
  1 14  1  0  0  0  0
  2 14  2  0  0  0  0
  3 15  1  0  0  0  0
  3 40  1  0  0  0  0
  4  5  1  0  0  0  0
  4  6  1  0  0  0  0
  4 10  1  0  0  0  0
  4 17  1  0  0  0  0
  5  8  1  0  0  0  0
  5 18  1  0  0  0  0
  6  9  1  0  0  0  0
  6 19  1  0  0  0  0
  6 20  1  0  0  0  0
  7  8  1  0  0  0  0
  7  9  1  0  0  0  0
  7 11  1  0  0  0  0
  7 21  1  0  0  0  0
  8 22  1  0  0  0  0
  8 23  1  0  0  0  0
  9 24  1  0  0  0  0
  9 25  1  0  0  0  0
 10 12  1  0  0  0  0
 10 13  1  0  0  0  0
 10 26  1  0  0  0  0
 11 27  1  0  0  0  0
 11 28  1  0  0  0  0
 11 29  1  0  0  0  0
 12 30  1  0  0  0  0
 12 31  1  0  0  0  0
 12 32  1  0  0  0  0
 13 33  1  0  0  0  0
 13 34  1  0  0  0  0
 13 35  1  0  0  0  0
 14 15  1  0  0  0  0
 15 16  1  0  0  0  0
 15 36  1  0  0  0  0
 16 37  1  0  0  0  0
 16 38  1  0  0  0  0
 16 39  1  0  0  0  0
M  END
> <PUBCHEM_COMPOUND_CID>
7076215

> <PUBCHEM_CONFORMER_RMSD>
0.6

> <PUBCHEM_CONFORMER_DIVERSEORDER>
1
52
16
18
35
48
49
45
9
30
24
54
27
13
46
12
32
56
43
50
44
53
21
5
38
26
31
42
23
51
41
28
57
11
29
39
40
33
47
22
37
17
55
25
15
10
34
20
4
19
36
14
8
7
3
6
2

> <PUBCHEM_MMFF94_PARTIAL_CHARGES>
7
1 -0.43
14 0.66
15 0.34
2 -0.57
3 -0.68
40 0.4
5 0.28

> <PUBCHEM_EFFECTIVE_ROTOR_COUNT>
5.2

> <PUBCHEM_PHARMACOPHORE_FEATURES>
5
1 2 acceptor
1 3 acceptor
1 3 donor
3 10 12 13 hydrophobe
6 4 5 6 7 8 9 rings

> <PUBCHEM_HEAVY_ATOM_COUNT>
16

> <PUBCHEM_ATOM_DEF_STEREO_COUNT>
4

> <PUBCHEM_ATOM_UDEF_STEREO_COUNT>
0

> <PUBCHEM_BOND_DEF_STEREO_COUNT>
0

> <PUBCHEM_BOND_UDEF_STEREO_COUNT>
0

> <PUBCHEM_ISOTOPIC_ATOM_COUNT>
0

> <PUBCHEM_COMPONENT_COUNT>
1

> <PUBCHEM_CACTVS_TAUTO_COUNT>
1

> <PUBCHEM_CONFORMER_ID>
006BF97700000001

> <PUBCHEM_MMFF94_ENERGY>
28.1429

> <PUBCHEM_FEATURE_SELFOVERLAP>
25.379

> <PUBCHEM_SHAPE_FINGERPRINT>
1 1 17328582821987909725
10989021 7 18195246852344773579
11357001 24 18408042892457883355
11680986 33 18195802093175088841
12500047 106 18195520399022780880
12553582 1 18122916579244536767
12824470 246 17096084821958950355
13083527 12 17550080998434464587
13140716 1 18338523035628702321
13538477 17 18186806859229385174
14178342 30 18261101921197612370
14787075 74 17392195527175194130
14817 1 18339095786781610285
15042514 8 18335992982359132011
15669948 3 18408322159879308934
16945 1 18336276638936479749
19868273 325 18409452526446579439
20097449 115 18194123138486704835
20361792 2 18195808689759708279
20510252 161 18198062469511151585
20524608 308 18268426841453818694
20671657 1 16899057458036587197
20871998 184 18343026583816691951
21041028 32 18193568976410846171
21296965 67 18265614475589013203
21452121 199 17764857388054495579
21524375 3 17835793097879606821
21650355 55 18336537300264128577
21731228 192 17906734704663342817
22112679 90 18265630929355250189
2334 1 18194404626306177725
23388829 49 17623559161521872321
23402539 116 18343291549313358023
23419403 2 17268586140742156185
23557571 272 18343868822692690708
23559900 14 18341049606655520502
23598294 1 18336561493915302282
257057 1 18194673998196702767
2748010 2 18269269239301922269
305870 269 17687743835503192424
3071541 236 18261946337189227529
3091708 16 9132718922748449929
5902787 121 18046346606739730619
6049 1 17846508032271617930
6333449 129 18342453690834456705
6338986 31 18125710434127240455
7364860 26 17620205655568257753
77492 1 17603590716343963266
81228 2 18412268320012032297
84936 182 17045690553146208112
90316 7 18409451392638582033

> <PUBCHEM_SHAPE_MULTIPOLES>
311.66
5.67
3.36
1.17
6.19
2.37
-0.02
-2.35
0.97
-3.74
-0.04
0.46
-0.4
0.11

> <PUBCHEM_SHAPE_SELFOVERLAP>
613.341

> <PUBCHEM_SHAPE_VOLUME>
186

> <PUBCHEM_COORDINATE_TYPE>
2
5
10

$$$$
