70796
  -OEChem-11232109063D

 30 30  0     0  0  0  0  0  0999 V2000
   -3.4019    0.7048   -0.3543 O   0  0  0  0  0  0  0  0  0  0  0  0
   -5.1424   -0.5857    0.4615 O   0  0  0  0  0  0  0  0  0  0  0  0
    1.3991   -0.3330   -0.3090 C   0  0  0  0  0  0  0  0  0  0  0  0
    1.7249    1.0247    0.3284 C   0  0  0  0  0  0  0  0  0  0  0  0
    2.4545   -1.3811    0.0686 C   0  0  0  0  0  0  0  0  0  0  0  0
    3.1364    1.4885   -0.0239 C   0  0  0  0  0  0  0  0  0  0  0  0
    3.8648   -0.9131   -0.2831 C   0  0  0  0  0  0  0  0  0  0  0  0
    4.1817    0.4405    0.3449 C   0  0  0  0  0  0  0  0  0  0  0  0
    0.0038   -0.8004    0.1009 C   0  0  0  0  0  0  0  0  0  0  0  0
   -1.0594    0.2115   -0.3071 C   0  0  0  0  0  0  0  0  0  0  0  0
   -2.4554   -0.2694    0.0627 C   0  0  0  0  0  0  0  0  0  0  0  0
   -4.7060    0.4126   -0.0895 C   0  0  0  0  0  0  0  0  0  0  0  0
    1.4180   -0.2127   -1.4012 H   0  0  0  0  0  0  0  0  0  0  0  0
    1.6227    0.9644    1.4192 H   0  0  0  0  0  0  0  0  0  0  0  0
    1.0413    1.8047   -0.0199 H   0  0  0  0  0  0  0  0  0  0  0  0
    2.2475   -2.3246   -0.4503 H   0  0  0  0  0  0  0  0  0  0  0  0
    2.4032   -1.5922    1.1444 H   0  0  0  0  0  0  0  0  0  0  0  0
    3.1943    1.6987   -1.0991 H   0  0  0  0  0  0  0  0  0  0  0  0
    3.3570    2.4272    0.4969 H   0  0  0  0  0  0  0  0  0  0  0  0
    4.5949   -1.6567    0.0563 H   0  0  0  0  0  0  0  0  0  0  0  0
    3.9643   -0.8422   -1.3733 H   0  0  0  0  0  0  0  0  0  0  0  0
   -0.2106   -1.7665   -0.3729 H   0  0  0  0  0  0  0  0  0  0  0  0
   -0.0380   -0.9624    1.1855 H   0  0  0  0  0  0  0  0  0  0  0  0
    5.1722    0.7763    0.0178 H   0  0  0  0  0  0  0  0  0  0  0  0
    4.2237    0.3356    1.4359 H   0  0  0  0  0  0  0  0  0  0  0  0
   -0.9139    1.1772    0.1874 H   0  0  0  0  0  0  0  0  0  0  0  0
   -1.0131    0.4074   -1.3854 H   0  0  0  0  0  0  0  0  0  0  0  0
   -2.6691   -1.2213   -0.4376 H   0  0  0  0  0  0  0  0  0  0  0  0
   -2.5296   -0.4104    1.1477 H   0  0  0  0  0  0  0  0  0  0  0  0
   -5.3313    1.2397   -0.4593 H   0  0  0  0  0  0  0  0  0  0  0  0
  1 11  1  0  0  0  0
  1 12  1  0  0  0  0
  2 12  2  0  0  0  0
  3  4  1  0  0  0  0
  3  5  1  0  0  0  0
  3  9  1  0  0  0  0
  3 13  1  0  0  0  0
  4  6  1  0  0  0  0
  4 14  1  0  0  0  0
  4 15  1  0  0  0  0
  5  7  1  0  0  0  0
  5 16  1  0  0  0  0
  5 17  1  0  0  0  0
  6  8  1  0  0  0  0
  6 18  1  0  0  0  0
  6 19  1  0  0  0  0
  7  8  1  0  0  0  0
  7 20  1  0  0  0  0
  7 21  1  0  0  0  0
  8 24  1  0  0  0  0
  8 25  1  0  0  0  0
  9 10  1  0  0  0  0
  9 22  1  0  0  0  0
  9 23  1  0  0  0  0
 10 11  1  0  0  0  0
 10 26  1  0  0  0  0
 10 27  1  0  0  0  0
 11 28  1  0  0  0  0
 11 29  1  0  0  0  0
 12 30  1  0  0  0  0
M  END
> <PUBCHEM_COMPOUND_CID>
70796

> <PUBCHEM_CONFORMER_RMSD>
0.6

> <PUBCHEM_CONFORMER_DIVERSEORDER>
1
76
59
4
20
5
46
79
21
62
44
90
69
86
43
29
71
41
22
75
58
27
84
6
35
48
30
15
89
2
39
36
80
65
83
25
12
13
74
64
10
42
73
8
72
37
52
51
54
19
53
50
60
40
3
61
34
16
17
67
33
49
23
57
9
88
38
26
63
82
77
55
7
14
68
24
85
66
11
78
47
18
28
81
87
31
56
32
45
70

> <PUBCHEM_MMFF94_PARTIAL_CHARGES>
5
1 -0.43
11 0.28
12 0.66
2 -0.57
30 0.06

> <PUBCHEM_EFFECTIVE_ROTOR_COUNT>
6.2

> <PUBCHEM_PHARMACOPHORE_FEATURES>
2
1 2 acceptor
6 3 4 5 6 7 8 rings

> <PUBCHEM_HEAVY_ATOM_COUNT>
12

> <PUBCHEM_ATOM_DEF_STEREO_COUNT>
0

> <PUBCHEM_ATOM_UDEF_STEREO_COUNT>
0

> <PUBCHEM_BOND_DEF_STEREO_COUNT>
0

> <PUBCHEM_BOND_UDEF_STEREO_COUNT>
0

> <PUBCHEM_ISOTOPIC_ATOM_COUNT>
0

> <PUBCHEM_COMPONENT_COUNT>
1

> <PUBCHEM_CACTVS_TAUTO_COUNT>
1

> <PUBCHEM_CONFORMER_ID>
0001148C00000001

> <PUBCHEM_MMFF94_ENERGY>
9.5812

> <PUBCHEM_FEATURE_SELFOVERLAP>
10.148

> <PUBCHEM_SHAPE_FINGERPRINT>
11471102 20 18412824681659707764
12346645 6 18201720639639288230
13081056 2 18408603664789129861
14123238 8 18410573994115971151
1420 363 18113624508447743475
17834072 33 18272647987163230119
18186145 218 18335695035697414527
20279233 1 18040160616740088331
20606313 2 18413669115158824700
20645477 70 18342459197188674566
20828058 21 16660361463463018879
212847 35 18343301478908844808
22485316 2 18260827086118774755
23402539 116 17704064080337246493
23402655 69 18272367564031552756
4047638 21 18411700997961290610
42 15 18333732399099696031
42788 4 18411700976586583447
449060 50 18335420205188137005
449060 62 18341896316028238460
522135 26 18341895177872298670
69090 78 18409727383042613451
77779 3 18411700984997241439

> <PUBCHEM_SHAPE_MULTIPOLES>
235.22
10.15
1.29
0.67
11.26
0.07
0
0.49
-0.58
-1.18
-0.02
-0.03
0
0.31

> <PUBCHEM_SHAPE_SELFOVERLAP>
450.491

> <PUBCHEM_SHAPE_VOLUME>
142.2

> <PUBCHEM_COORDINATE_TYPE>
2
5
10

$$$$
