70797
  -OEChem-11232109063D

 29 29  0     0  0  0  0  0  0999 V2000
   -2.1438   -1.2052   -0.1297 N   0  0  0  0  0  0  0  0  0  0  0  0
    2.2605   -0.0712   -0.6365 C   0  0  0  0  0  0  0  0  0  0  0  0
    0.8724    0.0029    0.0024 C   0  0  0  0  0  0  0  0  0  0  0  0
    3.3639    0.0145    0.4193 C   0  0  0  0  0  0  0  0  0  0  0  0
   -0.2298   -0.0489   -1.0577 C   0  0  0  0  0  0  0  0  0  0  0  0
    4.7511   -0.0259   -0.2214 C   0  0  0  0  0  0  0  0  0  0  0  0
   -1.6024   -0.0124   -0.4361 C   0  0  0  0  0  0  0  0  0  0  0  0
    5.8501    0.0932    0.8222 C   0  0  0  0  0  0  0  0  0  0  0  0
   -2.2037    1.2098   -0.2251 C   0  0  0  0  0  0  0  0  0  0  0  0
   -3.4697    1.2084    0.3499 C   0  0  0  0  0  0  0  0  0  0  0  0
   -3.3750   -1.1668    0.4274 C   0  0  0  0  0  0  0  0  0  0  0  0
   -4.0736    0.0017    0.6853 C   0  0  0  0  0  0  0  0  0  0  0  0
    2.3589   -1.0087   -1.1970 H   0  0  0  0  0  0  0  0  0  0  0  0
    2.3766    0.7493   -1.3551 H   0  0  0  0  0  0  0  0  0  0  0  0
    0.7841    0.9289    0.5846 H   0  0  0  0  0  0  0  0  0  0  0  0
    0.7494   -0.8273    0.7096 H   0  0  0  0  0  0  0  0  0  0  0  0
    3.2608   -0.8159    1.1284 H   0  0  0  0  0  0  0  0  0  0  0  0
    3.2520    0.9436    0.9915 H   0  0  0  0  0  0  0  0  0  0  0  0
   -0.1182    0.7803   -1.7676 H   0  0  0  0  0  0  0  0  0  0  0  0
   -0.1338   -0.9702   -1.6463 H   0  0  0  0  0  0  0  0  0  0  0  0
    4.8783   -0.9637   -0.7746 H   0  0  0  0  0  0  0  0  0  0  0  0
    4.8524    0.7930   -0.9432 H   0  0  0  0  0  0  0  0  0  0  0  0
    6.8333    0.0607    0.3426 H   0  0  0  0  0  0  0  0  0  0  0  0
    5.7704    1.0376    1.3701 H   0  0  0  0  0  0  0  0  0  0  0  0
    5.7965   -0.7285    1.5436 H   0  0  0  0  0  0  0  0  0  0  0  0
   -1.7217    2.1445   -0.4893 H   0  0  0  0  0  0  0  0  0  0  0  0
   -3.9845    2.1460    0.5368 H   0  0  0  0  0  0  0  0  0  0  0  0
   -3.8019   -2.1343    0.6706 H   0  0  0  0  0  0  0  0  0  0  0  0
   -5.0597   -0.0234    1.1345 H   0  0  0  0  0  0  0  0  0  0  0  0
  1  7  1  0  0  0  0
  1 11  2  0  0  0  0
  2  3  1  0  0  0  0
  2  4  1  0  0  0  0
  2 13  1  0  0  0  0
  2 14  1  0  0  0  0
  3  5  1  0  0  0  0
  3 15  1  0  0  0  0
  3 16  1  0  0  0  0
  4  6  1  0  0  0  0
  4 17  1  0  0  0  0
  4 18  1  0  0  0  0
  5  7  1  0  0  0  0
  5 19  1  0  0  0  0
  5 20  1  0  0  0  0
  6  8  1  0  0  0  0
  6 21  1  0  0  0  0
  6 22  1  0  0  0  0
  7  9  2  0  0  0  0
  8 23  1  0  0  0  0
  8 24  1  0  0  0  0
  8 25  1  0  0  0  0
  9 10  1  0  0  0  0
  9 26  1  0  0  0  0
 10 12  2  0  0  0  0
 10 27  1  0  0  0  0
 11 12  1  0  0  0  0
 11 28  1  0  0  0  0
 12 29  1  0  0  0  0
M  END
> <PUBCHEM_COMPOUND_CID>
70797

> <PUBCHEM_CONFORMER_RMSD>
0.6

> <PUBCHEM_CONFORMER_DIVERSEORDER>
1
70
15
9
58
49
42
12
53
5
45
51
18
69
21
39
2
10
81
13
77
48
30
36
59
76
56
66
14
78
22
57
82
3
63
79
7
33
26
38
74
8
29
60
11
34
37
23
40
32
61
4
43
44
41
68
62
24
52
80
28
16
67
31
55
54
65
27
17
20
72
6
75
71
35
73
47
64
25
46
50
19

> <PUBCHEM_MMFF94_PARTIAL_CHARGES>
11
1 -0.62
10 -0.15
11 0.16
12 -0.15
26 0.15
27 0.15
28 0.15
29 0.15
5 0.14
7 0.17
9 -0.15

> <PUBCHEM_EFFECTIVE_ROTOR_COUNT>
5

> <PUBCHEM_PHARMACOPHORE_FEATURES>
4
1 1 acceptor
1 8 hydrophobe
5 2 3 4 5 6 hydrophobe
6 1 7 9 10 11 12 rings

> <PUBCHEM_HEAVY_ATOM_COUNT>
12

> <PUBCHEM_ATOM_DEF_STEREO_COUNT>
0

> <PUBCHEM_ATOM_UDEF_STEREO_COUNT>
0

> <PUBCHEM_BOND_DEF_STEREO_COUNT>
0

> <PUBCHEM_BOND_UDEF_STEREO_COUNT>
0

> <PUBCHEM_ISOTOPIC_ATOM_COUNT>
0

> <PUBCHEM_COMPONENT_COUNT>
1

> <PUBCHEM_CACTVS_TAUTO_COUNT>
2

> <PUBCHEM_CONFORMER_ID>
0001148D00000001

> <PUBCHEM_MMFF94_ENERGY>
13.9042

> <PUBCHEM_FEATURE_SELFOVERLAP>
20.297

> <PUBCHEM_SHAPE_FINGERPRINT>
10014705 185 15984810563159687816
10680689 15 17775002405702430726
114248 4 8142083156879061206
12251169 10 18407763642131638269
13214271 11 18131068234140838053
13675066 3 18131632288143311014
14123238 8 17458346347264590068
1420 363 14706928428590868888
14251718 22 8574423232475995698
17834072 33 17822016445275627028
17834076 25 14549018784585931496
19050596 39 18187088373008624588
200 152 14923942357804584948
20279233 1 17846224349170047119
20432913 95 16515684420966932992
20645464 45 17989213642135063983
20645476 183 11959724950244080621
20645477 56 17561360690977024524
20645477 70 12252167555890059072
20767249 213 17132112446356454705
20828058 44 18334013895662064866
20871999 31 9583519781290262259
21119208 17 10375869671313260392
21650355 55 18335988661795871425
22485316 2 17167857547947971686
23402539 116 18260260863062553607
23403322 49 12612751315464754376
23590187 198 17603301536354289930
42 15 18259985964034090326
449060 50 17918277545541180972
57265010 4 18409452487802410555

> <PUBCHEM_SHAPE_MULTIPOLES>
241.97
11.24
1.07
0.9
14.58
0.02
-0.04
0.22
3.59
-1.3
0.05
0.18
0
0.09

> <PUBCHEM_SHAPE_SELFOVERLAP>
474.006

> <PUBCHEM_SHAPE_VOLUME>
145.5

> <PUBCHEM_COORDINATE_TYPE>
2
5
10

$$$$
