70971
  -OEChem-11232108503D

 20 20  0     0  0  0  0  0  0999 V2000
    4.3226    0.0201    0.5016 N   0  0  0  0  0  0  0  0  0  0  0  0
   -0.5936    0.0145    0.3770 C   0  0  0  0  0  0  0  0  0  0  0  0
    0.8330    0.0268    0.6604 C   0  0  0  0  0  0  0  0  0  0  0  0
   -1.2824    1.2164    0.2128 C   0  0  0  0  0  0  0  0  0  0  0  0
   -1.2731   -1.1990    0.2697 C   0  0  0  0  0  0  0  0  0  0  0  0
   -2.6505    1.2049   -0.0587 C   0  0  0  0  0  0  0  0  0  0  0  0
   -2.6413   -1.2104   -0.0018 C   0  0  0  0  0  0  0  0  0  0  0  0
    1.8426   -0.0141   -0.2443 C   0  0  0  0  0  0  0  0  0  0  0  0
   -3.3299   -0.0085   -0.1660 C   0  0  0  0  0  0  0  0  0  0  0  0
    1.5622   -0.0547   -1.7214 C   0  0  0  0  0  0  0  0  0  0  0  0
    3.2104    0.0040    0.1707 C   0  0  0  0  0  0  0  0  0  0  0  0
    1.0725    0.0672    1.7221 H   0  0  0  0  0  0  0  0  0  0  0  0
   -0.7669    2.1704    0.2935 H   0  0  0  0  0  0  0  0  0  0  0  0
   -0.7506   -2.1442    0.3953 H   0  0  0  0  0  0  0  0  0  0  0  0
   -3.1868    2.1406   -0.1867 H   0  0  0  0  0  0  0  0  0  0  0  0
   -3.1706   -2.1551   -0.0855 H   0  0  0  0  0  0  0  0  0  0  0  0
   -4.3951   -0.0175   -0.3775 H   0  0  0  0  0  0  0  0  0  0  0  0
    2.0270    0.8063   -2.2151 H   0  0  0  0  0  0  0  0  0  0  0  0
    1.9873   -0.9657   -2.1578 H   0  0  0  0  0  0  0  0  0  0  0  0
    0.5002   -0.0381   -1.9798 H   0  0  0  0  0  0  0  0  0  0  0  0
  1 11  3  0  0  0  0
  2  3  1  0  0  0  0
  2  4  2  0  0  0  0
  2  5  1  0  0  0  0
  3  8  2  3  0  0  0
  3 12  1  0  0  0  0
  4  6  1  0  0  0  0
  4 13  1  0  0  0  0
  5  7  2  0  0  0  0
  5 14  1  0  0  0  0
  6  9  2  0  0  0  0
  6 15  1  0  0  0  0
  7  9  1  0  0  0  0
  7 16  1  0  0  0  0
  8 10  1  0  0  0  0
  8 11  1  0  0  0  0
  9 17  1  0  0  0  0
 10 18  1  0  0  0  0
 10 19  1  0  0  0  0
 10 20  1  0  0  0  0
M  END
> <PUBCHEM_COMPOUND_CID>
70971

> <PUBCHEM_CONFORMER_RMSD>
0.4

> <PUBCHEM_CONFORMER_DIVERSEORDER>
1

> <PUBCHEM_MMFF94_PARTIAL_CHARGES>
17
1 -0.56
10 0.14
11 0.49
12 0.15
13 0.15
14 0.15
15 0.15
16 0.15
17 0.15
2 0.03
3 -0.18
4 -0.15
5 -0.15
6 -0.15
7 -0.15
8 -0.07
9 -0.15

> <PUBCHEM_EFFECTIVE_ROTOR_COUNT>
1

> <PUBCHEM_PHARMACOPHORE_FEATURES>
3
1 1 acceptor
1 10 hydrophobe
6 2 4 5 6 7 9 rings

> <PUBCHEM_HEAVY_ATOM_COUNT>
11

> <PUBCHEM_ATOM_DEF_STEREO_COUNT>
0

> <PUBCHEM_ATOM_UDEF_STEREO_COUNT>
0

> <PUBCHEM_BOND_DEF_STEREO_COUNT>
0

> <PUBCHEM_BOND_UDEF_STEREO_COUNT>
1

> <PUBCHEM_ISOTOPIC_ATOM_COUNT>
0

> <PUBCHEM_COMPONENT_COUNT>
1

> <PUBCHEM_CACTVS_TAUTO_COUNT>
1

> <PUBCHEM_CONFORMER_ID>
0001153B00000001

> <PUBCHEM_MMFF94_ENERGY>
26.4319

> <PUBCHEM_FEATURE_SELFOVERLAP>
15.223

> <PUBCHEM_SHAPE_FINGERPRINT>
10219947 1 16558750126773963984
11062470 55 17988923370674966832
12716758 59 18269848522905128991
13024252 1 15791733001507596905
14325111 11 18410292480305174370
15219456 202 17703799071842986670
15775835 57 18187364277265150193
16945 1 18338529585680311455
18175812 5 17917424367362366936
20201158 50 17775568632457533271
20279233 1 17775571926792381983
20645464 45 18060422417290875419
20645477 56 18339928112842090433
20645477 70 15984267296709283285
20653085 51 15574712538635923287
21061003 4 16702024213739020272
21119208 17 17458620120906146135
23402539 116 18343008983040596093
23557571 272 18202291289915377957
23559900 14 18270960151289794298
3248919 1 17703520938350923104
57812782 119 18343580742003375348
6333449 129 18343580737719035577
77492 1 17603868905290780472

> <PUBCHEM_SHAPE_MULTIPOLES>
221.39
6.15
1.15
0.98
3.98
0
-0.42
0.02
0.35
-1.04
0.05
0.54
-0.01
0.04

> <PUBCHEM_SHAPE_SELFOVERLAP>
456.33

> <PUBCHEM_SHAPE_VOLUME>
125.1

> <PUBCHEM_COORDINATE_TYPE>
2
5
10

$$$$
