71306906
  -OEChem-11232109253D

 45 46  0     1  0  0  0  0  0999 V2000
   -2.4339    0.4304    1.3251 O   0  0  0  0  0  0  0  0  0  0  0  0
    2.3134   -1.2278    0.7953 O   0  0  0  0  0  0  0  0  0  0  0  0
   -0.3944   -0.6290    0.7429 O   0  0  0  0  0  0  0  0  0  0  0  0
    1.5241    2.3335    0.2636 O   0  0  0  0  0  0  0  0  0  0  0  0
   -1.7751   -3.0223    0.2520 O   0  0  0  0  0  0  0  0  0  0  0  0
   -3.8337   -2.1450   -1.5831 O   0  0  0  0  0  0  0  0  0  0  0  0
   -3.6571    0.6668   -2.1442 O   0  0  0  0  0  0  0  0  0  0  0  0
    3.0918    1.6634   -2.0483 O   0  0  0  0  0  0  0  0  0  0  0  0
    5.0748   -0.3640   -1.4710 O   0  0  0  0  0  0  0  0  0  0  0  0
    4.6095   -0.8542    1.2526 O   0  0  0  0  0  0  0  0  0  0  0  0
   -2.5478    3.1526    1.1548 O   0  0  0  0  0  0  0  0  0  0  0  0
    1.8520    0.0861    1.1294 C   0  0  1  0  0  0  0  0  0  0  0  0
    1.8508    0.9960   -0.1065 C   0  0  2  0  0  0  0  0  0  0  0  0
   -2.5204   -1.8203    0.4103 C   0  0  2  0  0  0  0  0  0  0  0  0
   -2.8887   -1.2682   -0.9654 C   0  0  2  0  0  0  0  0  0  0  0  0
   -1.7229   -0.8057    1.2314 C   0  0  2  0  0  0  0  0  0  0  0  0
   -3.5306    0.1146   -0.8359 C   0  0  1  0  0  0  0  0  0  0  0  0
    3.2236    1.0134   -0.7820 C   0  0  1  0  0  0  0  0  0  0  0  0
   -2.6856    1.0375    0.0526 C   0  0  1  0  0  0  0  0  0  0  0  0
    3.7319   -0.4101   -1.0018 C   0  0  2  0  0  0  0  0  0  0  0  0
    0.4563   -0.0704    1.7270 C   0  0  0  0  0  0  0  0  0  0  0  0
    3.6451   -1.2448    0.2770 C   0  0  2  0  0  0  0  0  0  0  0  0
   -3.3832    2.3677    0.3241 C   0  0  0  0  0  0  0  0  0  0  0  0
    2.4984    0.5062    1.9110 H   0  0  0  0  0  0  0  0  0  0  0  0
    1.0986    0.6682   -0.8336 H   0  0  0  0  0  0  0  0  0  0  0  0
   -3.4448   -2.0752    0.9445 H   0  0  0  0  0  0  0  0  0  0  0  0
   -2.0138   -1.2431   -1.6254 H   0  0  0  0  0  0  0  0  0  0  0  0
   -1.6556   -1.2119    2.2490 H   0  0  0  0  0  0  0  0  0  0  0  0
   -4.5425    0.0140   -0.4248 H   0  0  0  0  0  0  0  0  0  0  0  0
    3.9455    1.6040   -0.2062 H   0  0  0  0  0  0  0  0  0  0  0  0
   -1.7210    1.2578   -0.4239 H   0  0  0  0  0  0  0  0  0  0  0  0
    3.1260   -0.8820   -1.7859 H   0  0  0  0  0  0  0  0  0  0  0  0
    0.0698    0.8994    2.0597 H   0  0  0  0  0  0  0  0  0  0  0  0
    0.5058   -0.7500    2.5864 H   0  0  0  0  0  0  0  0  0  0  0  0
    3.8777   -2.2845    0.0181 H   0  0  0  0  0  0  0  0  0  0  0  0
   -3.5748    2.9149   -0.6039 H   0  0  0  0  0  0  0  0  0  0  0  0
   -4.3286    2.2108    0.8540 H   0  0  0  0  0  0  0  0  0  0  0  0
    2.1700    2.6275    0.9285 H   0  0  0  0  0  0  0  0  0  0  0  0
   -1.5513   -3.3476    1.1406 H   0  0  0  0  0  0  0  0  0  0  0  0
   -4.6188   -2.1960   -1.0117 H   0  0  0  0  0  0  0  0  0  0  0  0
   -2.7627    0.7944   -2.5038 H   0  0  0  0  0  0  0  0  0  0  0  0
    2.4663    1.1514   -2.5888 H   0  0  0  0  0  0  0  0  0  0  0  0
    5.3708   -1.2810   -1.6019 H   0  0  0  0  0  0  0  0  0  0  0  0
    4.8054   -1.6383    1.7931 H   0  0  0  0  0  0  0  0  0  0  0  0
   -3.0112    3.9919    1.3171 H   0  0  0  0  0  0  0  0  0  0  0  0
  1 16  1  0  0  0  0
  1 19  1  0  0  0  0
  2 12  1  0  0  0  0
  2 22  1  0  0  0  0
  3 16  1  0  0  0  0
  3 21  1  0  0  0  0
  4 13  1  0  0  0  0
  4 38  1  0  0  0  0
  5 14  1  0  0  0  0
  5 39  1  0  0  0  0
  6 15  1  0  0  0  0
  6 40  1  0  0  0  0
  7 17  1  0  0  0  0
  7 41  1  0  0  0  0
  8 18  1  0  0  0  0
  8 42  1  0  0  0  0
  9 20  1  0  0  0  0
  9 43  1  0  0  0  0
 10 22  1  0  0  0  0
 10 44  1  0  0  0  0
 11 23  1  0  0  0  0
 11 45  1  0  0  0  0
 12 13  1  0  0  0  0
 12 21  1  0  0  0  0
 12 24  1  0  0  0  0
 13 18  1  0  0  0  0
 13 25  1  0  0  0  0
 14 15  1  0  0  0  0
 14 16  1  0  0  0  0
 14 26  1  0  0  0  0
 15 17  1  0  0  0  0
 15 27  1  0  0  0  0
 16 28  1  0  0  0  0
 17 19  1  0  0  0  0
 17 29  1  0  0  0  0
 18 20  1  0  0  0  0
 18 30  1  0  0  0  0
 19 23  1  0  0  0  0
 19 31  1  0  0  0  0
 20 22  1  0  0  0  0
 20 32  1  0  0  0  0
 21 33  1  0  0  0  0
 21 34  1  0  0  0  0
 22 35  1  0  0  0  0
 23 36  1  0  0  0  0
 23 37  1  0  0  0  0
M  END
> <PUBCHEM_COMPOUND_CID>
71306906

> <PUBCHEM_CONFORMER_RMSD>
0.8

> <PUBCHEM_CONFORMER_DIVERSEORDER>
1
22
210
317
41
333
32
218
245
275
254
112
209
311
107
78
206
222
244
65
154
33
113
256
330
173
202
145
116
235
26
156
20
139
148
117
92
250
45
199
242
93
283
178
62
323
155
59
43
7
207
15
86
130
37
186
109
264
253
303
119
90
310
161
179
106
24
98
128
284
40
147
114
48
217
300
138
175
200
88
14
269
31
262
211
239
337
227
335
261
123
267
8
274
91
76
13
273
214
307
331
169
50
281
297
193
290
12
336
83
125
129
194
195
279
103
243
19
294
205
58
221
229
47
190
248
171
164
163
137
285
105
212
135
94
54
247
141
111
151
30
177
79
312
252
55
280
51
191
318
241
278
215
168
42
301
314
240
293
257
6
18
66
34
265
35
74
80
110
183
324
85
56
140
320
233
99
203
231
126
224
61
236
118
71
321
181
295
329
68
2
134
232
276
75
28
246
263
299
292
176
296
249
234
167
313
308
291
201
101
16
143
332
272
216
162
316
3
327
260
121
289
81
170
5
146
270
152
142
188
172
192
25
334
228
213
255
122
72
223
64
132
87
197
102
97
49
166
288
82
124
204
36
84
60
131
23
309
340
150
67
10
69
304
149
184
271
100
29
302
160
89
127
286
174
133
104
187
77
53
70
220
196
238
268
282
157
159
326
11
52
325
219
136
73
277
189
339
38
153
63
225
96
21
319
306
305
144
158
180
39
208
17
259
328
226
322
185
9
95
338
165
266
298
27
4
237
287
251
315
120
46
44
182
115
108
57
198
230
258

> <PUBCHEM_MMFF94_PARTIAL_CHARGES>
31
1 -0.56
10 -0.68
11 -0.68
12 0.28
13 0.28
14 0.28
15 0.28
16 0.56
17 0.28
18 0.28
19 0.28
2 -0.56
20 0.28
21 0.28
22 0.56
23 0.28
3 -0.56
38 0.4
39 0.4
4 -0.68
40 0.4
41 0.4
42 0.4
43 0.4
44 0.4
45 0.4
5 -0.68
6 -0.68
7 -0.68
8 -0.68
9 -0.68

> <PUBCHEM_EFFECTIVE_ROTOR_COUNT>
6.4

> <PUBCHEM_PHARMACOPHORE_FEATURES>
21
1 1 acceptor
1 10 acceptor
1 10 donor
1 11 acceptor
1 11 donor
1 2 acceptor
1 3 acceptor
1 4 acceptor
1 4 donor
1 5 acceptor
1 5 donor
1 6 acceptor
1 6 donor
1 7 acceptor
1 7 donor
1 8 acceptor
1 8 donor
1 9 acceptor
1 9 donor
6 1 14 15 16 17 19 rings
6 2 12 13 18 20 22 rings

> <PUBCHEM_HEAVY_ATOM_COUNT>
23

> <PUBCHEM_ATOM_DEF_STEREO_COUNT>
9

> <PUBCHEM_ATOM_UDEF_STEREO_COUNT>
1

> <PUBCHEM_BOND_DEF_STEREO_COUNT>
0

> <PUBCHEM_BOND_UDEF_STEREO_COUNT>
0

> <PUBCHEM_ISOTOPIC_ATOM_COUNT>
0

> <PUBCHEM_COMPONENT_COUNT>
1

> <PUBCHEM_CACTVS_TAUTO_COUNT>
1

> <PUBCHEM_CONFORMER_ID>
04400E9A00000001

> <PUBCHEM_MMFF94_ENERGY>
61.8813

> <PUBCHEM_FEATURE_SELFOVERLAP>
106.707

> <PUBCHEM_SHAPE_FINGERPRINT>
10498660 4 16298658490459492711
12173636 292 18411141316467445265
12346177 29 17846500296555398697
12363563 72 16774079591679526114
12596599 1 18260831496696572068
12788726 201 18342746234538092193
13693222 15 12463568478238365818
13764800 53 13840259278168874691
14341114 328 9511454546247402582
16752209 62 18271798025836014059
18186145 218 16588313774015477114
18981168 100 15864354674452950193
19862831 5 18187356645076447707
21475661 188 14132673176185103015
22393880 68 18336836393940628798
22907989 373 18338523065936164023
23503958 25 13767932316535220534
23557571 272 18127956689095702081
23559900 14 18129361834706690265
27216 239 13912324590437106871
3082319 5 18335140924992416610
4921388 177 17704073984552715465
5161694 15 18410570686627325462
5262128 65 18340771558361319429
633830 44 17749683882899233970
74978 22 18409165536531374920
9882013 296 11023820669781331936

> <PUBCHEM_SHAPE_MULTIPOLES>
408.77
9.16
2.64
1.74
5.46
0.56
-0.44
-0.52
-3.51
-2.5
0.18
-0.02
0.11
-1.4

> <PUBCHEM_SHAPE_SELFOVERLAP>
835.175

> <PUBCHEM_SHAPE_VOLUME>
231.4

> <PUBCHEM_COORDINATE_TYPE>
2
5
10

$$$$
