71356702
  -OEChem-11232109433D

 32 31  0     0  0  0  0  0  0999 V2000
    2.2924   -0.8728    0.8251 O   0  0  0  0  0  0  0  0  0  0  0  0
    2.3658    0.3223    0.0448 C   0  0  0  0  0  0  0  0  0  0  0  0
    1.0710    0.4413   -0.7845 C   0  0  0  0  0  0  0  0  0  0  0  0
   -0.2198    0.4418    0.0469 C   0  0  0  0  0  0  0  0  0  0  0  0
    2.4688    1.5082    1.0097 C   0  0  0  0  0  0  0  0  0  0  0  0
    3.6178    0.2526   -0.8323 C   0  0  0  0  0  0  0  0  0  0  0  0
   -1.4562    0.5413   -0.8573 C   0  0  0  0  0  0  0  0  0  0  0  0
   -2.7515    0.5024   -0.0744 C   0  0  0  0  0  0  0  0  0  0  0  0
    2.1945   -2.0210   -0.0017 C   0  0  0  0  0  0  0  0  0  0  0  0
   -3.3486   -0.7711    0.3065 C   0  0  0  0  0  0  0  0  0  0  0  0
   -3.3438    1.6508    0.2978 C   0  0  0  0  0  0  0  0  0  0  0  0
   -2.8904   -1.9959    0.0194 C   0  0  0  0  0  0  0  0  0  0  0  0
    1.1124    1.3838   -1.3489 H   0  0  0  0  0  0  0  0  0  0  0  0
    1.0096   -0.3357   -1.5547 H   0  0  0  0  0  0  0  0  0  0  0  0
   -0.2265    1.2910    0.7390 H   0  0  0  0  0  0  0  0  0  0  0  0
   -0.2761   -0.4686    0.6538 H   0  0  0  0  0  0  0  0  0  0  0  0
    1.7025    1.4693    1.7907 H   0  0  0  0  0  0  0  0  0  0  0  0
    3.4274    1.4811    1.5421 H   0  0  0  0  0  0  0  0  0  0  0  0
    2.3998    2.4676    0.4869 H   0  0  0  0  0  0  0  0  0  0  0  0
    3.4908   -0.4041   -1.6994 H   0  0  0  0  0  0  0  0  0  0  0  0
    4.4843   -0.1063   -0.2656 H   0  0  0  0  0  0  0  0  0  0  0  0
    3.8611    1.2420   -1.2368 H   0  0  0  0  0  0  0  0  0  0  0  0
   -1.4444   -0.2453   -1.6213 H   0  0  0  0  0  0  0  0  0  0  0  0
   -1.3989    1.4820   -1.4226 H   0  0  0  0  0  0  0  0  0  0  0  0
    2.2075   -2.8854    0.6720 H   0  0  0  0  0  0  0  0  0  0  0  0
    3.0469   -2.1593   -0.6698 H   0  0  0  0  0  0  0  0  0  0  0  0
    1.2464   -2.0893   -0.5393 H   0  0  0  0  0  0  0  0  0  0  0  0
   -4.2709   -0.7164    0.8832 H   0  0  0  0  0  0  0  0  0  0  0  0
   -2.9142    2.6138    0.0399 H   0  0  0  0  0  0  0  0  0  0  0  0
   -4.2671    1.6648    0.8686 H   0  0  0  0  0  0  0  0  0  0  0  0
   -3.4344   -2.8704    0.3622 H   0  0  0  0  0  0  0  0  0  0  0  0
   -1.9826   -2.1711   -0.5455 H   0  0  0  0  0  0  0  0  0  0  0  0
  1  2  1  0  0  0  0
  1  9  1  0  0  0  0
  2  3  1  0  0  0  0
  2  5  1  0  0  0  0
  2  6  1  0  0  0  0
  3  4  1  0  0  0  0
  3 13  1  0  0  0  0
  3 14  1  0  0  0  0
  4  7  1  0  0  0  0
  4 15  1  0  0  0  0
  4 16  1  0  0  0  0
  5 17  1  0  0  0  0
  5 18  1  0  0  0  0
  5 19  1  0  0  0  0
  6 20  1  0  0  0  0
  6 21  1  0  0  0  0
  6 22  1  0  0  0  0
  7  8  1  0  0  0  0
  7 23  1  0  0  0  0
  7 24  1  0  0  0  0
  8 10  1  0  0  0  0
  8 11  2  0  0  0  0
  9 25  1  0  0  0  0
  9 26  1  0  0  0  0
  9 27  1  0  0  0  0
 10 12  2  0  0  0  0
 10 28  1  0  0  0  0
 11 29  1  0  0  0  0
 11 30  1  0  0  0  0
 12 31  1  0  0  0  0
 12 32  1  0  0  0  0
M  END
> <PUBCHEM_COMPOUND_CID>
71356702

> <PUBCHEM_CONFORMER_RMSD>
0.6

> <PUBCHEM_CONFORMER_DIVERSEORDER>
1
118
39
160
127
23
24
125
91
108
117
87
44
162
54
71
130
32
150
60
123
55
135
124
48
140
141
148
41
156
27
154
128
56
121
155
77
153
159
119
72
58
139
21
50
43
151
66
42
70
45
82
165
142
133
63
110
104
38
46
161
59
98
76
152
4
134
86
89
88
101
103
149
99
25
92
90
97
122
30
79
16
146
40
22
109
26
112
64
9
158
106
120
34
132
111
85
107
166
126
19
68
73
116
52
51
17
102
105
157
47
114
115
20
18
138
65
137
96
144
13
31
84
53
3
83
29
100
80
93
129
35
6
74
95
163
11
36
81
94
78
145
61
131
62
75
8
14
113
143
5
7
2
69
57
37
147
33
15
164
67
10
28
12
49
136

> <PUBCHEM_MMFF94_PARTIAL_CHARGES>
13
1 -0.56
10 -0.15
11 -0.3
12 -0.3
2 0.28
28 0.15
29 0.15
30 0.15
31 0.15
32 0.15
7 0.14
8 -0.14
9 0.28

> <PUBCHEM_EFFECTIVE_ROTOR_COUNT>
6

> <PUBCHEM_PHARMACOPHORE_FEATURES>
5
1 1 acceptor
1 11 hydrophobe
1 12 hydrophobe
3 2 5 6 hydrophobe
5 3 4 7 8 10 hydrophobe

> <PUBCHEM_HEAVY_ATOM_COUNT>
12

> <PUBCHEM_ATOM_DEF_STEREO_COUNT>
0

> <PUBCHEM_ATOM_UDEF_STEREO_COUNT>
0

> <PUBCHEM_BOND_DEF_STEREO_COUNT>
0

> <PUBCHEM_BOND_UDEF_STEREO_COUNT>
0

> <PUBCHEM_ISOTOPIC_ATOM_COUNT>
0

> <PUBCHEM_COMPONENT_COUNT>
1

> <PUBCHEM_CACTVS_TAUTO_COUNT>
1

> <PUBCHEM_CONFORMER_ID>
0440D11E00000001

> <PUBCHEM_MMFF94_ENERGY>
31.9739

> <PUBCHEM_FEATURE_SELFOVERLAP>
25.397

> <PUBCHEM_SHAPE_FINGERPRINT>
124424 183 17846213298361865765
12500047 106 18337669724543051557
12932764 1 18131629001997652285
13296908 3 18131350829771735789
14144814 61 18410009923081198473
14178342 30 18335127713578062313
14325111 11 18409167701358506597
14445660 50 18335710420608080133
14965852 173 18410293597086361517
15775835 57 18335145267125153571
17834074 16 18410296899663283927
18186145 218 18272934912057982313
18522853 266 18336549326409921119
19107657 46 18409448089603158823
20279233 1 18335689551240422789
20339313 130 16701753708615503556
20442098 301 18341891934982469495
20528008 55 18411974776462101989
20645477 70 18189327983679055439
21730867 7 18335416868177753092
22169311 14 18343017753247756761
22169311 21 18335408072068926181
23402539 116 16877656860245257100
3248919 1 18334846217205610277
3312278 4 18413394223966097761
581208 293 17968093144482932174

> <PUBCHEM_SHAPE_MULTIPOLES>
241.09
7.01
1.92
0.93
1.29
0.77
-0.02
0.13
0.3
0.57
0.32
-0.44
-0.16
0.15

> <PUBCHEM_SHAPE_SELFOVERLAP>
451.092

> <PUBCHEM_SHAPE_VOLUME>
152

> <PUBCHEM_COORDINATE_TYPE>
2
5
10

$$$$
