71363528
  -OEChem-11232108473D

 32 31  0     1  0  0  0  0  0999 V2000
    0.4792    0.4798    0.5355 O   0  0  0  0  0  0  0  0  0  0  0  0
   -0.8434    1.2091   -1.2076 O   0  0  0  0  0  0  0  0  0  0  0  0
    1.6443    0.9474   -0.1517 C   0  0  2  0  0  0  0  0  0  0  0  0
    2.8531    0.0788    0.2111 C   0  0  0  0  0  0  0  0  0  0  0  0
   -3.0723   -0.2594   -0.0514 C   0  0  0  0  0  0  0  0  0  0  0  0
   -1.8357    0.1674    0.7548 C   0  0  0  0  0  0  0  0  0  0  0  0
    2.6517   -1.3850   -0.1904 C   0  0  0  0  0  0  0  0  0  0  0  0
    1.8747    2.4072    0.2155 C   0  0  0  0  0  0  0  0  0  0  0  0
   -0.7060    0.6778   -0.1142 C   0  0  0  0  0  0  0  0  0  0  0  0
   -2.7382   -1.3836   -1.0353 C   0  0  0  0  0  0  0  0  0  0  0  0
   -4.1839   -0.7149    0.8960 C   0  0  0  0  0  0  0  0  0  0  0  0
    3.8765   -2.2247    0.1377 C   0  0  0  0  0  0  0  0  0  0  0  0
    1.5044    0.8742   -1.2383 H   0  0  0  0  0  0  0  0  0  0  0  0
    3.0212    0.1223    1.2947 H   0  0  0  0  0  0  0  0  0  0  0  0
    3.7518    0.4745   -0.2775 H   0  0  0  0  0  0  0  0  0  0  0  0
   -3.4401    0.5996   -0.6266 H   0  0  0  0  0  0  0  0  0  0  0  0
   -1.4713   -0.6898    1.3348 H   0  0  0  0  0  0  0  0  0  0  0  0
   -2.0956    0.9669    1.4579 H   0  0  0  0  0  0  0  0  0  0  0  0
    1.7830   -1.8045    0.3296 H   0  0  0  0  0  0  0  0  0  0  0  0
    2.4494   -1.4506   -1.2658 H   0  0  0  0  0  0  0  0  0  0  0  0
    1.9968    2.5220    1.2982 H   0  0  0  0  0  0  0  0  0  0  0  0
    2.7649    2.8057   -0.2808 H   0  0  0  0  0  0  0  0  0  0  0  0
    1.0161    3.0236   -0.0705 H   0  0  0  0  0  0  0  0  0  0  0  0
   -2.3278   -2.2561   -0.5153 H   0  0  0  0  0  0  0  0  0  0  0  0
   -3.6375   -1.7055   -1.5718 H   0  0  0  0  0  0  0  0  0  0  0  0
   -2.0102   -1.0651   -1.7871 H   0  0  0  0  0  0  0  0  0  0  0  0
   -3.8730   -1.5826    1.4880 H   0  0  0  0  0  0  0  0  0  0  0  0
   -4.4563    0.0883    1.5887 H   0  0  0  0  0  0  0  0  0  0  0  0
   -5.0834   -0.9915    0.3359 H   0  0  0  0  0  0  0  0  0  0  0  0
    4.0891   -2.2051    1.2114 H   0  0  0  0  0  0  0  0  0  0  0  0
    4.7591   -1.8561   -0.3947 H   0  0  0  0  0  0  0  0  0  0  0  0
    3.7122   -3.2658   -0.1573 H   0  0  0  0  0  0  0  0  0  0  0  0
  1  3  1  0  0  0  0
  1  9  1  0  0  0  0
  2  9  2  0  0  0  0
  3  4  1  0  0  0  0
  3  8  1  0  0  0  0
  3 13  1  0  0  0  0
  4  7  1  0  0  0  0
  4 14  1  0  0  0  0
  4 15  1  0  0  0  0
  5  6  1  0  0  0  0
  5 10  1  0  0  0  0
  5 11  1  0  0  0  0
  5 16  1  0  0  0  0
  6  9  1  0  0  0  0
  6 17  1  0  0  0  0
  6 18  1  0  0  0  0
  7 12  1  0  0  0  0
  7 19  1  0  0  0  0
  7 20  1  0  0  0  0
  8 21  1  0  0  0  0
  8 22  1  0  0  0  0
  8 23  1  0  0  0  0
 10 24  1  0  0  0  0
 10 25  1  0  0  0  0
 10 26  1  0  0  0  0
 11 27  1  0  0  0  0
 11 28  1  0  0  0  0
 11 29  1  0  0  0  0
 12 30  1  0  0  0  0
 12 31  1  0  0  0  0
 12 32  1  0  0  0  0
M  END
> <PUBCHEM_COMPOUND_CID>
71363528

> <PUBCHEM_CONFORMER_RMSD>
0.6

> <PUBCHEM_CONFORMER_DIVERSEORDER>
1
187
165
88
261
99
223
20
215
152
166
220
80
212
178
160
133
8
139
209
244
50
132
113
159
107
25
243
235
71
255
156
221
127
69
29
35
85
264
89
138
74
37
51
168
202
136
231
121
125
217
249
229
204
14
135
16
123
11
45
263
260
90
258
224
151
177
106
225
230
191
256
201
206
102
62
141
108
218
83
39
247
171
12
145
57
131
126
239
144
252
100
162
164
128
78
146
93
174
98
60
143
154
87
18
266
236
114
101
149
200
216
40
193
56
254
75
129
61
3
194
65
68
257
43
52
38
186
103
192
36
5
198
265
237
169
6
86
42
248
82
41
59
226
10
195
111
47
182
175
242
54
130
222
7
250
134
245
81
208
26
163
49
22
110
94
63
238
31
203
79
232
205
228
33
53
95
13
48
170
157
268
158
92
262
210
97
267
21
253
4
15
96
120
76
148
105
117
64
34
219
137
185
67
124
155
73
9
30
28
233
44
118
214
184
161
241
240
46
58
140
32
167
246
153
211
109
251
23
70
77
199
19
72
197
91
181
180
115
196
179
188
176
66
112
227
119
172
173
189
122
234
183
2
207
84
259
147
150
116
190
142
213
24
104
55
17
27

> <PUBCHEM_MMFF94_PARTIAL_CHARGES>
5
1 -0.43
2 -0.57
3 0.28
6 0.06
9 0.66

> <PUBCHEM_EFFECTIVE_ROTOR_COUNT>
6

> <PUBCHEM_PHARMACOPHORE_FEATURES>
3
1 12 hydrophobe
1 2 acceptor
3 5 10 11 hydrophobe

> <PUBCHEM_HEAVY_ATOM_COUNT>
12

> <PUBCHEM_ATOM_DEF_STEREO_COUNT>
1

> <PUBCHEM_ATOM_UDEF_STEREO_COUNT>
0

> <PUBCHEM_BOND_DEF_STEREO_COUNT>
0

> <PUBCHEM_BOND_UDEF_STEREO_COUNT>
0

> <PUBCHEM_ISOTOPIC_ATOM_COUNT>
0

> <PUBCHEM_COMPONENT_COUNT>
1

> <PUBCHEM_CACTVS_TAUTO_COUNT>
1

> <PUBCHEM_CONFORMER_ID>
0440EBC800000001

> <PUBCHEM_MMFF94_ENERGY>
8.2603

> <PUBCHEM_FEATURE_SELFOVERLAP>
15.223

> <PUBCHEM_SHAPE_FINGERPRINT>
10465860 71 16008756813784147511
10857977 72 15123515860471954521
11137873 295 18335412440082451303
11769659 78 18343577451826467511
122479 349 11023811873588180346
12932764 1 18200880694175656733
13296908 3 17749102340026924777
14251710 61 18334863792080293499
14251717 144 18410852196090498194
14252887 29 18041849531278075897
15375462 189 18272654583905916602
15477762 27 18409167731655249840
20281475 54 18410295825900185495
20645477 70 18335971060735289887
20671657 53 18335707109071873624
20711985 344 17314500435757256749
20871998 22 18409728426840719480
22485316 2 18342453746552857138
2255824 54 18268434705839839004
22926399 37 8574711278631863211
23557571 272 16660641907605569325
581208 293 18339073916771319008
7364860 26 18341331197237775512
94968 8 18333456430445502554

> <PUBCHEM_SHAPE_MULTIPOLES>
235.22
7.2
2.15
0.94
1.86
0.1
0.1
-4.52
-1.07
-2.46
0.12
0.66
-0.04
-0.13

> <PUBCHEM_SHAPE_SELFOVERLAP>
432.63

> <PUBCHEM_SHAPE_VOLUME>
150

> <PUBCHEM_COORDINATE_TYPE>
2
5
10

$$$$
