71409403
  -OEChem-11232108553D

 35 35  0     0  0  0  0  0  0999 V2000
    0.0971    0.3093    0.0170 O   0  0  0  0  0  0  0  0  0  0  0  0
    0.7299   -1.8178    0.4522 N   0  0  0  0  0  0  0  0  0  0  0  0
   -2.1561    0.1272   -0.9222 C   0  0  0  0  0  0  0  0  0  0  0  0
   -3.0264    0.7532    0.1699 C   0  0  0  0  0  0  0  0  0  0  0  0
   -0.9209   -0.5186   -0.3487 C   0  0  0  0  0  0  0  0  0  0  0  0
    2.2926    0.0782    0.9644 C   0  0  0  0  0  0  0  0  0  0  0  0
    3.2263    0.5167   -0.1845 C   0  0  0  0  0  0  0  0  0  0  0  0
    1.0482   -0.5436    0.4867 C   0  0  0  0  0  0  0  0  0  0  0  0
   -4.2931    1.3736   -0.4191 C   0  0  0  0  0  0  0  0  0  0  0  0
   -0.5328   -1.8081   -0.0829 C   0  0  0  0  0  0  0  0  0  0  0  0
    4.5354    1.1206    0.3238 C   0  0  0  0  0  0  0  0  0  0  0  0
   -5.1818    1.9619    0.6652 C   0  0  0  0  0  0  0  0  0  0  0  0
   -1.2724   -3.0600   -0.2974 C   0  0  0  0  0  0  0  0  0  0  0  0
    5.4539    1.5073   -0.8244 C   0  0  0  0  0  0  0  0  0  0  0  0
   -1.8519    0.8926   -1.6462 H   0  0  0  0  0  0  0  0  0  0  0  0
   -2.7302   -0.6270   -1.4734 H   0  0  0  0  0  0  0  0  0  0  0  0
   -3.2997   -0.0126    0.9072 H   0  0  0  0  0  0  0  0  0  0  0  0
   -2.4550    1.5197    0.7087 H   0  0  0  0  0  0  0  0  0  0  0  0
    2.0520    0.9466    1.5895 H   0  0  0  0  0  0  0  0  0  0  0  0
    2.8242   -0.6331    1.6081 H   0  0  0  0  0  0  0  0  0  0  0  0
    2.7069    1.2465   -0.8186 H   0  0  0  0  0  0  0  0  0  0  0  0
    3.4460   -0.3504   -0.8208 H   0  0  0  0  0  0  0  0  0  0  0  0
   -4.0244    2.1611   -1.1327 H   0  0  0  0  0  0  0  0  0  0  0  0
   -4.8582    0.6138   -0.9715 H   0  0  0  0  0  0  0  0  0  0  0  0
    4.3228    2.0071    0.9324 H   0  0  0  0  0  0  0  0  0  0  0  0
    5.0509    0.3999    0.9689 H   0  0  0  0  0  0  0  0  0  0  0  0
   -5.4959    1.1912    1.3763 H   0  0  0  0  0  0  0  0  0  0  0  0
   -6.0807    2.4013    0.2216 H   0  0  0  0  0  0  0  0  0  0  0  0
   -4.6573    2.7473    1.2188 H   0  0  0  0  0  0  0  0  0  0  0  0
   -1.4286   -3.2358   -1.3663 H   0  0  0  0  0  0  0  0  0  0  0  0
   -0.7260   -3.9165    0.1100 H   0  0  0  0  0  0  0  0  0  0  0  0
   -2.2505   -3.0209    0.1923 H   0  0  0  0  0  0  0  0  0  0  0  0
    4.9790    2.2500   -1.4734 H   0  0  0  0  0  0  0  0  0  0  0  0
    6.3828    1.9382   -0.4380 H   0  0  0  0  0  0  0  0  0  0  0  0
    5.7115    0.6340   -1.4322 H   0  0  0  0  0  0  0  0  0  0  0  0
  1  5  1  0  0  0  0
  1  8  1  0  0  0  0
  2  8  2  0  0  0  0
  2 10  1  0  0  0  0
  3  4  1  0  0  0  0
  3  5  1  0  0  0  0
  3 15  1  0  0  0  0
  3 16  1  0  0  0  0
  4  9  1  0  0  0  0
  4 17  1  0  0  0  0
  4 18  1  0  0  0  0
  5 10  2  0  0  0  0
  6  7  1  0  0  0  0
  6  8  1  0  0  0  0
  6 19  1  0  0  0  0
  6 20  1  0  0  0  0
  7 11  1  0  0  0  0
  7 21  1  0  0  0  0
  7 22  1  0  0  0  0
  9 12  1  0  0  0  0
  9 23  1  0  0  0  0
  9 24  1  0  0  0  0
 10 13  1  0  0  0  0
 11 14  1  0  0  0  0
 11 25  1  0  0  0  0
 11 26  1  0  0  0  0
 12 27  1  0  0  0  0
 12 28  1  0  0  0  0
 12 29  1  0  0  0  0
 13 30  1  0  0  0  0
 13 31  1  0  0  0  0
 13 32  1  0  0  0  0
 14 33  1  0  0  0  0
 14 34  1  0  0  0  0
 14 35  1  0  0  0  0
M  END
> <PUBCHEM_COMPOUND_CID>
71409403

> <PUBCHEM_CONFORMER_RMSD>
0.6

> <PUBCHEM_CONFORMER_DIVERSEORDER>
2
195
228
306
291
123
300
220
143
167
59
267
292
119
309
255
3
239
169
294
301
298
97
147
13
296
8
211
250
58
282
208
279
197
107
289
224
52
209
222
37
280
120
242
10
232
295
32
308
134
64
144
93
124
215
191
288
297
269
109
14
271
67
240
192
126
243
264
272
79
276
290
199
234
103
305
185
230
1
183
161
125
278
48
260
78
28
61
299
287
261
146
66
201
102
41
118
198
194
286
277
259
226
19
39
188
160
187
128
23
139
56
138
200
196
108
105
94
114
193
285
90
213
150
158
204
46
69
293
162
20
206
42
283
68
256
189
246
223
219
175
303
127
111
302
137
202
157
252
145
129
63
210
133
236
116
168
25
225
182
106
265
156
275
245
190
244
131
26
218
73
227
251
4
247
57
113
9
72
268
141
34
180
77
274
238
45
11
121
164
110
266
38
43
100
44
233
262
142
172
31
62
33
85
184
149
16
205
101
166
235
155
51
18
86
257
153
148
5
91
22
217
55
174
24
76
12
83
163
281
284
30
132
248
229
258
96
88
170
36
177
171
50
122
7
82
15
89
98
17
70
221
49
84
136
165
270
29
214
216
140
178
87
152
231
92
60
6
115
179
104
154
273
21
304
212
237
74
75
135
81
151
54
53
307
27
263
130
159
173
249
99
80
112
35
181
207
241
203
65
40
117
254
253
186
176
71
95
47

> <PUBCHEM_MMFF94_PARTIAL_CHARGES>
8
1 -0.28
10 0.05
13 0.18
2 -0.57
3 0.18
5 -0.04
6 0.18
8 0.3

> <PUBCHEM_EFFECTIVE_ROTOR_COUNT>
6

> <PUBCHEM_PHARMACOPHORE_FEATURES>
3
1 12 hydrophobe
1 14 hydrophobe
5 1 2 5 8 10 rings

> <PUBCHEM_HEAVY_ATOM_COUNT>
14

> <PUBCHEM_ATOM_DEF_STEREO_COUNT>
0

> <PUBCHEM_ATOM_UDEF_STEREO_COUNT>
0

> <PUBCHEM_BOND_DEF_STEREO_COUNT>
0

> <PUBCHEM_BOND_UDEF_STEREO_COUNT>
0

> <PUBCHEM_ISOTOPIC_ATOM_COUNT>
0

> <PUBCHEM_COMPONENT_COUNT>
1

> <PUBCHEM_CACTVS_TAUTO_COUNT>
2

> <PUBCHEM_CONFORMER_ID>
04419EFB00000002

> <PUBCHEM_MMFF94_ENERGY>
-2.114

> <PUBCHEM_FEATURE_SELFOVERLAP>
15.223

> <PUBCHEM_SHAPE_FINGERPRINT>
100836 57 18409451379732938108
10681291 71 18411703170856273633
10726558 24 18343021094901124710
10753850 27 10807932648231417693
122479 349 18260268572555139210
12346645 44 18339075995699001005
12390115 104 18341906198768910313
12644460 14 17969215638560129874
12954195 1 18201155567745487799
14123255 52 18410570673816412749
1420 369 8718830903002922848
15342168 16 18335980887599377229
15778101 99 18337113483819338860
1741750 31 18412537738931296522
17834072 32 18337391638316928684
18222031 100 10953747672672398432
18785283 64 18191021197057611810
200 152 11527951161974369740
204376 136 18409164385976017979
20621476 66 18334580179127851684
20645477 56 18410012173770720676
20645477 70 16486988314591734076
20671657 53 11239993481696350898
20871999 31 18268427013574348614
21426921 1 18195244653332489814
21499 59 18339351977565443167
21501925 9 8142074377628415015
22620623 9 17702376449831268999
23253445 4 15647058153101898365
23402539 116 18272925042608232108
23402655 69 17988921154356018429
23500284 214 18408040727651752824
23557571 272 18198634417890010758
23558518 356 17900540391281181968
23559900 14 18272931661870142968
25147074 1 18264746861851304058
293599 30 18411702079897793552
449060 50 18261675870598980733
458136 41 18339641118863922931
5104073 3 17968927726028835928
56616090 163 18340778087001591062
633830 44 18128815249069036727
76465 3 9367343730089304448
81539 233 18266735784354924111

> <PUBCHEM_SHAPE_MULTIPOLES>
277.26
10.2
2.53
0.89
3.76
1.88
0.01
-11.01
0.57
-1.74
0.08
0.13
-0.13
-0.85

> <PUBCHEM_SHAPE_SELFOVERLAP>
538.791

> <PUBCHEM_SHAPE_VOLUME>
170.1

> <PUBCHEM_COORDINATE_TYPE>
2
5
10

$$$$
