71438214
  -OEChem-11232108503D

 27 26  0     0  0  0  0  0  0999 V2000
   -0.2376    0.5845    0.3987 S   0  0  0  0  0  0  0  0  0  0  0  0
   -1.7618   -0.7370   -1.2995 O   0  0  0  0  0  0  0  0  0  0  0  0
   -2.9470    0.0936    0.6447 C   0  0  0  0  0  0  0  0  0  0  0  0
   -3.9176   -1.0769    0.5042 C   0  0  0  0  0  0  0  0  0  0  0  0
   -3.6175    1.4063    0.2528 C   0  0  0  0  0  0  0  0  0  0  0  0
   -1.7245   -0.1333   -0.2332 C   0  0  0  0  0  0  0  0  0  0  0  0
    0.9337    0.1056   -0.8898 C   0  0  0  0  0  0  0  0  0  0  0  0
    3.2762   -0.0127    0.1211 C   0  0  0  0  0  0  0  0  0  0  0  0
    2.2989    0.6207   -0.5557 C   0  0  0  0  0  0  0  0  0  0  0  0
    4.6307    0.5625    0.4247 C   0  0  0  0  0  0  0  0  0  0  0  0
    3.0665   -1.4133    0.6320 C   0  0  0  0  0  0  0  0  0  0  0  0
   -2.6365    0.1416    1.6955 H   0  0  0  0  0  0  0  0  0  0  0  0
   -4.3020   -1.1620   -0.5183 H   0  0  0  0  0  0  0  0  0  0  0  0
   -4.7728   -0.9545    1.1772 H   0  0  0  0  0  0  0  0  0  0  0  0
   -3.4239   -2.0229    0.7521 H   0  0  0  0  0  0  0  0  0  0  0  0
   -3.9214    1.3991   -0.8000 H   0  0  0  0  0  0  0  0  0  0  0  0
   -2.9389    2.2546    0.3918 H   0  0  0  0  0  0  0  0  0  0  0  0
   -4.5083    1.5863    0.8635 H   0  0  0  0  0  0  0  0  0  0  0  0
    0.6200    0.5471   -1.8426 H   0  0  0  0  0  0  0  0  0  0  0  0
    0.9251   -0.9784   -1.0345 H   0  0  0  0  0  0  0  0  0  0  0  0
    2.5063    1.6311   -0.9070 H   0  0  0  0  0  0  0  0  0  0  0  0
    4.7887    0.6185    1.5064 H   0  0  0  0  0  0  0  0  0  0  0  0
    4.7394    1.5732    0.0178 H   0  0  0  0  0  0  0  0  0  0  0  0
    5.4169   -0.0609   -0.0132 H   0  0  0  0  0  0  0  0  0  0  0  0
    3.6987   -2.1121    0.0740 H   0  0  0  0  0  0  0  0  0  0  0  0
    2.0374   -1.7729    0.5752 H   0  0  0  0  0  0  0  0  0  0  0  0
    3.3518   -1.4683    1.6888 H   0  0  0  0  0  0  0  0  0  0  0  0
  1  6  1  0  0  0  0
  1  7  1  0  0  0  0
  2  6  2  0  0  0  0
  3  4  1  0  0  0  0
  3  5  1  0  0  0  0
  3  6  1  0  0  0  0
  3 12  1  0  0  0  0
  4 13  1  0  0  0  0
  4 14  1  0  0  0  0
  4 15  1  0  0  0  0
  5 16  1  0  0  0  0
  5 17  1  0  0  0  0
  5 18  1  0  0  0  0
  7  9  1  0  0  0  0
  7 19  1  0  0  0  0
  7 20  1  0  0  0  0
  8  9  2  0  0  0  0
  8 10  1  0  0  0  0
  8 11  1  0  0  0  0
  9 21  1  0  0  0  0
 10 22  1  0  0  0  0
 10 23  1  0  0  0  0
 10 24  1  0  0  0  0
 11 25  1  0  0  0  0
 11 26  1  0  0  0  0
 11 27  1  0  0  0  0
M  END
> <PUBCHEM_COMPOUND_CID>
71438214

> <PUBCHEM_CONFORMER_RMSD>
0.6

> <PUBCHEM_CONFORMER_DIVERSEORDER>
1
123
114
100
30
136
140
3
65
62
24
119
109
49
143
56
98
74
52
16
99
141
69
124
134
43
113
9
79
23
121
126
32
145
120
64
15
73
82
142
127
68
2
7
39
41
97
47
108
78
66
81
18
106
117
118
34
90
11
50
71
14
58
101
54
92
102
48
22
38
45
86
4
129
51
36
144
44
35
137
28
20
131
138
27
111
29
5
130
89
26
110
125
61
37
95
103
76
57
93
115
105
53
107
72
80
70
19
10
91
128
75
132
85
94
116
40
42
139
135
21
63
12
96
67
31
55
33
87
104
84
8
122
46
83
17
60
6
133
112
88
59
77
13
25

> <PUBCHEM_MMFF94_PARTIAL_CHARGES>
10
1 -0.37
10 0.14
11 0.14
2 -0.57
21 0.15
3 0.06
6 0.65
7 0.37
8 -0.28
9 -0.29

> <PUBCHEM_EFFECTIVE_ROTOR_COUNT>
4

> <PUBCHEM_PHARMACOPHORE_FEATURES>
2
3 3 4 5 hydrophobe
3 8 10 11 hydrophobe

> <PUBCHEM_HEAVY_ATOM_COUNT>
11

> <PUBCHEM_ATOM_DEF_STEREO_COUNT>
0

> <PUBCHEM_ATOM_UDEF_STEREO_COUNT>
0

> <PUBCHEM_BOND_DEF_STEREO_COUNT>
0

> <PUBCHEM_BOND_UDEF_STEREO_COUNT>
0

> <PUBCHEM_ISOTOPIC_ATOM_COUNT>
0

> <PUBCHEM_COMPONENT_COUNT>
1

> <PUBCHEM_CACTVS_TAUTO_COUNT>
1

> <PUBCHEM_CONFORMER_ID>
04420F8600000001

> <PUBCHEM_MMFF94_ENERGY>
10.4023

> <PUBCHEM_FEATURE_SELFOVERLAP>
10.149

> <PUBCHEM_SHAPE_FINGERPRINT>
11062470 55 18202565077132555424
12251169 10 18272932760353018660
124424 183 18343579616706431401
12932764 1 18273206513110458308
13675066 3 18341614806459459946
14123238 8 17312823805516370768
14251717 144 17676206883547613826
14252887 29 17531247236598242128
14993402 34 10087638186917678617
15775835 57 18131631188399769386
177051 138 18334580131075706530
17834074 16 17676496076538429123
17834076 25 15195571207856890889
190213 19 18334013886792549001
19422 9 18114470019392450441
1986462 14 11097856298180585665
20112054 60 17703517601662741153
20201158 50 16732703848340135770
20528008 55 15985101894643250629
20645464 45 16415484865396891829
20645477 70 18042385964135475734
20671657 53 13045949005404007006
20765181 27 16056878009435815929
21061003 4 13335033702849908877
22485316 2 18260265243902724187
23402539 116 15574986295382335990
23402655 69 10663827373039930874
42 15 18333453127219662216
449060 50 16917073277979394300
57812782 119 16008746926684886450
581208 293 17676209074291950058

> <PUBCHEM_SHAPE_MULTIPOLES>
224.36
8.88
1.23
0.97
2.08
0.15
0.18
0.14
-2.06
-0.33
-0.16
-0.12
0.06
-0.3

> <PUBCHEM_SHAPE_SELFOVERLAP>
404.234

> <PUBCHEM_SHAPE_VOLUME>
146

> <PUBCHEM_COORDINATE_TYPE>
2
5
10

$$$$
