71553170
  -OEChem-11232108563D

 38 38  0     1  0  0  0  0  0999 V2000
    3.5396   -0.9285    0.7699 O   0  0  0  0  0  0  0  0  0  0  0  0
   -1.1653   -1.1655   -0.0362 C   0  0  0  0  0  0  0  0  0  0  0  0
   -2.4863   -1.0243   -0.8382 C   0  0  0  0  0  0  0  0  0  0  0  0
   -0.5478    0.2112    0.2861 C   0  0  0  0  0  0  0  0  0  0  0  0
   -3.3982    0.0419   -0.2543 C   0  0  0  0  0  0  0  0  0  0  0  0
   -1.2485    1.3636    0.1477 C   0  0  0  0  0  0  0  0  0  0  0  0
   -2.7027    1.3960   -0.2699 C   0  0  0  0  0  0  0  0  0  0  0  0
    0.8831    0.1973    0.7776 C   0  0  0  0  0  0  0  0  0  0  0  0
   -0.2114   -2.0224   -0.8973 C   0  0  0  0  0  0  0  0  0  0  0  0
   -1.4507   -1.9226    1.2797 C   0  0  0  0  0  0  0  0  0  0  0  0
    1.8612    0.3647   -0.3791 C   0  0  0  0  0  0  0  0  0  0  0  0
   -0.6748    2.7423    0.3628 C   0  0  0  0  0  0  0  0  0  0  0  0
    3.3130    0.3122    0.1070 C   0  0  2  0  0  0  0  0  0  0  0  0
    4.2887    0.4340   -1.0558 C   0  0  0  0  0  0  0  0  0  0  0  0
   -3.0199   -1.9826   -0.8710 H   0  0  0  0  0  0  0  0  0  0  0  0
   -2.2660   -0.7606   -1.8821 H   0  0  0  0  0  0  0  0  0  0  0  0
   -3.6876   -0.2199    0.7699 H   0  0  0  0  0  0  0  0  0  0  0  0
   -4.3266    0.1000   -0.8341 H   0  0  0  0  0  0  0  0  0  0  0  0
   -3.2614    2.0762    0.3846 H   0  0  0  0  0  0  0  0  0  0  0  0
   -2.7572    1.8141   -1.2834 H   0  0  0  0  0  0  0  0  0  0  0  0
    1.0444    0.9829    1.5255 H   0  0  0  0  0  0  0  0  0  0  0  0
    1.0839   -0.7304    1.3234 H   0  0  0  0  0  0  0  0  0  0  0  0
    0.0315   -1.5284   -1.8444 H   0  0  0  0  0  0  0  0  0  0  0  0
    0.7157   -2.2801   -0.3755 H   0  0  0  0  0  0  0  0  0  0  0  0
   -0.6886   -2.9764   -1.1557 H   0  0  0  0  0  0  0  0  0  0  0  0
   -0.5283   -2.1909    1.8059 H   0  0  0  0  0  0  0  0  0  0  0  0
   -2.0559   -1.3256    1.9707 H   0  0  0  0  0  0  0  0  0  0  0  0
   -1.9902   -2.8573    1.0875 H   0  0  0  0  0  0  0  0  0  0  0  0
    1.6889    1.3207   -0.8887 H   0  0  0  0  0  0  0  0  0  0  0  0
    1.7302   -0.4138   -1.1325 H   0  0  0  0  0  0  0  0  0  0  0  0
   -0.8593    3.3643   -0.5202 H   0  0  0  0  0  0  0  0  0  0  0  0
    0.4023    2.7613    0.5372 H   0  0  0  0  0  0  0  0  0  0  0  0
   -1.1580    3.2173    1.2231 H   0  0  0  0  0  0  0  0  0  0  0  0
    3.4932    1.1182    0.8275 H   0  0  0  0  0  0  0  0  0  0  0  0
    4.1701   -0.3990   -1.7575 H   0  0  0  0  0  0  0  0  0  0  0  0
    5.3218    0.3944   -0.6940 H   0  0  0  0  0  0  0  0  0  0  0  0
    4.1466    1.3741   -1.5974 H   0  0  0  0  0  0  0  0  0  0  0  0
    4.4599   -0.9297    1.0840 H   0  0  0  0  0  0  0  0  0  0  0  0
  1 13  1  0  0  0  0
  1 38  1  0  0  0  0
  2  3  1  0  0  0  0
  2  4  1  0  0  0  0
  2  9  1  0  0  0  0
  2 10  1  0  0  0  0
  3  5  1  0  0  0  0
  3 15  1  0  0  0  0
  3 16  1  0  0  0  0
  4  6  2  0  0  0  0
  4  8  1  0  0  0  0
  5  7  1  0  0  0  0
  5 17  1  0  0  0  0
  5 18  1  0  0  0  0
  6  7  1  0  0  0  0
  6 12  1  0  0  0  0
  7 19  1  0  0  0  0
  7 20  1  0  0  0  0
  8 11  1  0  0  0  0
  8 21  1  0  0  0  0
  8 22  1  0  0  0  0
  9 23  1  0  0  0  0
  9 24  1  0  0  0  0
  9 25  1  0  0  0  0
 10 26  1  0  0  0  0
 10 27  1  0  0  0  0
 10 28  1  0  0  0  0
 11 13  1  0  0  0  0
 11 29  1  0  0  0  0
 11 30  1  0  0  0  0
 12 31  1  0  0  0  0
 12 32  1  0  0  0  0
 12 33  1  0  0  0  0
 13 14  1  0  0  0  0
 13 34  1  0  0  0  0
 14 35  1  0  0  0  0
 14 36  1  0  0  0  0
 14 37  1  0  0  0  0
M  END
> <PUBCHEM_COMPOUND_CID>
71553170

> <PUBCHEM_CONFORMER_RMSD>
0.6

> <PUBCHEM_CONFORMER_DIVERSEORDER>
1
12
10
4
9
6
7
8
13
3
2
5
11

> <PUBCHEM_MMFF94_PARTIAL_CHARGES>
9
1 -0.68
12 0.14
13 0.28
2 0.14
38 0.4
4 -0.28
6 -0.28
7 0.14
8 0.14

> <PUBCHEM_EFFECTIVE_ROTOR_COUNT>
3.8

> <PUBCHEM_PHARMACOPHORE_FEATURES>
4
1 1 acceptor
1 1 donor
3 2 9 10 hydrophobe
6 2 3 4 5 6 7 rings

> <PUBCHEM_HEAVY_ATOM_COUNT>
14

> <PUBCHEM_ATOM_DEF_STEREO_COUNT>
1

> <PUBCHEM_ATOM_UDEF_STEREO_COUNT>
0

> <PUBCHEM_BOND_DEF_STEREO_COUNT>
0

> <PUBCHEM_BOND_UDEF_STEREO_COUNT>
0

> <PUBCHEM_ISOTOPIC_ATOM_COUNT>
0

> <PUBCHEM_COMPONENT_COUNT>
1

> <PUBCHEM_CACTVS_TAUTO_COUNT>
1

> <PUBCHEM_CONFORMER_ID>
0443D09200000001

> <PUBCHEM_MMFF94_ENERGY>
24.3867

> <PUBCHEM_FEATURE_SELFOVERLAP>
20.297

> <PUBCHEM_SHAPE_FINGERPRINT>
10062212 137 18268694040022943727
11680986 33 17977943811175201305
12423570 1 17336997840053114243
12932764 1 18272373117988548082
13024252 1 18114181956094208791
13380535 76 18339078177215528159
14614273 12 18192146002000761325
14993402 34 18260263053522365317
15669948 3 18411696617020873702
15775835 57 18113620049575383852
16945 1 18130211684655127281
18186145 218 17846494816304002480
193761 8 17765151666418100393
20279233 1 17632295688191083462
20645476 183 18040437715087160359
20871998 184 18342746238184070103
20871999 31 18409161138875448893
21501502 16 18126847092795095591
21524375 3 18050283669952385737
22344851 341 17907298750128765259
23402539 116 18270950280611033461
23463225 33 18264481802487011778
23559900 14 18201715138144916928
23598291 2 18042125350283861354
2748010 2 18125428954807959617
3312278 4 18187932836630450522
353137 74 18266454309225336465
4175511 318 18187363237756353932
559249 180 18192991518380061330
77492 1 17967806133335659624
81228 2 18341339911404854384
9709674 26 18412830162096480598

> <PUBCHEM_SHAPE_MULTIPOLES>
282.24
5.96
2.26
1.03
6.47
0.55
0.05
0.21
-1.26
-1.34
0.21
0.14
-0.36
-0.14

> <PUBCHEM_SHAPE_SELFOVERLAP>
552.69

> <PUBCHEM_SHAPE_VOLUME>
170.2

> <PUBCHEM_COORDINATE_TYPE>
2
5
10

$$$$
