71587838
  -OEChem-11232108403D

 36 36  0     1  0  0  0  0  0999 V2000
    0.8592   -0.4960   -0.7632 S   0  0  0  0  0  0  0  0  0  0  0  0
   -0.4723    1.8014   -0.2175 O   0  0  0  0  0  0  0  0  0  0  0  0
    2.0921    0.3218    0.3052 C   0  0  2  0  0  0  0  0  0  0  0  0
    1.9188    1.8438    0.2636 C   0  0  0  0  0  0  0  0  0  0  0  0
    3.4921   -0.0857   -0.1421 C   0  0  0  0  0  0  0  0  0  0  0  0
   -0.6159    0.3811   -0.1584 C   0  0  1  0  0  0  0  0  0  0  0  0
    0.5206    2.2928    0.6794 C   0  0  0  0  0  0  0  0  0  0  0  0
    3.8588   -1.4723    0.3778 C   0  0  0  0  0  0  0  0  0  0  0  0
   -1.8060    0.0037   -1.0299 C   0  0  0  0  0  0  0  0  0  0  0  0
    5.2437   -1.8899   -0.0901 C   0  0  0  0  0  0  0  0  0  0  0  0
   -3.0598    0.6809   -0.5636 C   0  0  0  0  0  0  0  0  0  0  0  0
   -3.9188    0.1379    0.3117 C   0  0  0  0  0  0  0  0  0  0  0  0
   -3.7325   -1.2145    0.9333 C   0  0  0  0  0  0  0  0  0  0  0  0
   -4.3800   -2.3048    0.0939 C   0  0  0  0  0  0  0  0  0  0  0  0
    1.9182   -0.0184    1.3334 H   0  0  0  0  0  0  0  0  0  0  0  0
    2.1277    2.2094   -0.7506 H   0  0  0  0  0  0  0  0  0  0  0  0
    2.6506    2.3140    0.9315 H   0  0  0  0  0  0  0  0  0  0  0  0
    3.5985   -0.0354   -1.2334 H   0  0  0  0  0  0  0  0  0  0  0  0
    4.2233    0.6244    0.2669 H   0  0  0  0  0  0  0  0  0  0  0  0
   -0.8020    0.0767    0.8788 H   0  0  0  0  0  0  0  0  0  0  0  0
    0.2859    1.9834    1.7048 H   0  0  0  0  0  0  0  0  0  0  0  0
    0.4697    3.3862    0.6500 H   0  0  0  0  0  0  0  0  0  0  0  0
    3.8354   -1.4798    1.4739 H   0  0  0  0  0  0  0  0  0  0  0  0
    3.1375   -2.2220    0.0347 H   0  0  0  0  0  0  0  0  0  0  0  0
   -1.9347   -1.0834   -1.0746 H   0  0  0  0  0  0  0  0  0  0  0  0
   -1.6401    0.3325   -2.0653 H   0  0  0  0  0  0  0  0  0  0  0  0
    5.2935   -1.9296   -1.1829 H   0  0  0  0  0  0  0  0  0  0  0  0
    5.4911   -2.8833    0.2972 H   0  0  0  0  0  0  0  0  0  0  0  0
    6.0061   -1.1885    0.2639 H   0  0  0  0  0  0  0  0  0  0  0  0
   -3.2735    1.6704   -0.9592 H   0  0  0  0  0  0  0  0  0  0  0  0
   -4.8103    0.6956    0.5857 H   0  0  0  0  0  0  0  0  0  0  0  0
   -2.6755   -1.4492    1.0959 H   0  0  0  0  0  0  0  0  0  0  0  0
   -4.1901   -1.2025    1.9298 H   0  0  0  0  0  0  0  0  0  0  0  0
   -4.2569   -3.2773    0.5815 H   0  0  0  0  0  0  0  0  0  0  0  0
   -3.9331   -2.3704   -0.9032 H   0  0  0  0  0  0  0  0  0  0  0  0
   -5.4536   -2.1241   -0.0274 H   0  0  0  0  0  0  0  0  0  0  0  0
  1  3  1  0  0  0  0
  1  6  1  0  0  0  0
  2  6  1  0  0  0  0
  2  7  1  0  0  0  0
  3  4  1  0  0  0  0
  3  5  1  0  0  0  0
  3 15  1  0  0  0  0
  4  7  1  0  0  0  0
  4 16  1  0  0  0  0
  4 17  1  0  0  0  0
  5  8  1  0  0  0  0
  5 18  1  0  0  0  0
  5 19  1  0  0  0  0
  6  9  1  0  0  0  0
  6 20  1  0  0  0  0
  7 21  1  0  0  0  0
  7 22  1  0  0  0  0
  8 10  1  0  0  0  0
  8 23  1  0  0  0  0
  8 24  1  0  0  0  0
  9 11  1  0  0  0  0
  9 25  1  0  0  0  0
  9 26  1  0  0  0  0
 10 27  1  0  0  0  0
 10 28  1  0  0  0  0
 10 29  1  0  0  0  0
 11 12  2  0  0  0  0
 11 30  1  0  0  0  0
 12 13  1  0  0  0  0
 12 31  1  0  0  0  0
 13 14  1  0  0  0  0
 13 32  1  0  0  0  0
 13 33  1  0  0  0  0
 14 34  1  0  0  0  0
 14 35  1  0  0  0  0
 14 36  1  0  0  0  0
M  END
> <PUBCHEM_COMPOUND_CID>
71587838

> <PUBCHEM_CONFORMER_RMSD>
0.8

> <PUBCHEM_CONFORMER_DIVERSEORDER>
1
124
83
102
177
125
115
98
105
113
64
12
58
93
175
193
76
116
73
15
128
121
166
127
135
62
40
181
103
57
182
26
6
3
173
123
92
11
194
161
164
143
80
46
145
132
139
25
184
158
134
90
117
79
84
137
138
156
188
37
153
17
133
157
32
192
75
136
55
109
130
38
172
77
50
10
180
129
195
27
167
185
41
101
168
13
91
106
159
14
95
140
142
111
110
78
54
190
85
104
191
160
72
5
141
183
49
187
146
99
108
169
8
42
120
107
56
179
24
170
144
152
31
4
162
47
176
61
89
33
87
30
34
2
9
171
178
70
100
39
82
112
174
155
148
154
29
198
131
186
52
28
18
48
7
96
189
22
147
97
65
23
196
119
150
43
122
94
16
71
165
68
66
69
59
63
20
86
60
35
151
74
51
163
126
36
149
21
19
88
53
44
197
114
118
45
67
81

> <PUBCHEM_MMFF94_PARTIAL_CHARGES>
11
1 -0.46
11 -0.29
12 -0.29
13 0.14
2 -0.56
3 0.23
30 0.15
31 0.15
6 0.51
7 0.28
9 0.14

> <PUBCHEM_EFFECTIVE_ROTOR_COUNT>
6.2

> <PUBCHEM_PHARMACOPHORE_FEATURES>
4
1 10 hydrophobe
1 14 hydrophobe
1 2 acceptor
6 1 2 3 4 6 7 rings

> <PUBCHEM_HEAVY_ATOM_COUNT>
14

> <PUBCHEM_ATOM_DEF_STEREO_COUNT>
0

> <PUBCHEM_ATOM_UDEF_STEREO_COUNT>
2

> <PUBCHEM_BOND_DEF_STEREO_COUNT>
1

> <PUBCHEM_BOND_UDEF_STEREO_COUNT>
0

> <PUBCHEM_ISOTOPIC_ATOM_COUNT>
0

> <PUBCHEM_COMPONENT_COUNT>
1

> <PUBCHEM_CACTVS_TAUTO_COUNT>
1

> <PUBCHEM_CONFORMER_ID>
044457FE00000001

> <PUBCHEM_MMFF94_ENERGY>
15.8977

> <PUBCHEM_FEATURE_SELFOVERLAP>
20.297

> <PUBCHEM_SHAPE_FINGERPRINT>
11543360 7 16732993015677120046
12006461 19 18261956357500916435
12032990 46 18410292506017007732
122479 349 10735865188843105388
124424 183 18339916031204393685
12633257 1 18200331999529966595
12670546 56 13758077337875186414
13103583 49 18129959913529928499
13296908 3 18336541698585179837
13533116 47 18196934594594494931
13675066 3 18060131037887608056
13740256 8 18410294718194378866
14123255 352 10592043539964482803
14251710 61 18335421274487307058
14251731 5 18334860553933350259
14251764 30 18130240280605991670
14252887 29 17846781763575534870
15061688 2 9871747992388092508
15375462 189 18129941299025752360
17834072 33 17967542259609811854
17834074 16 18260828245485709731
193927 3 18270407083892746806
19782 4 10015580593006364082
20281475 54 18408890645739775645
20339313 130 18202288017382387400
20621476 51 17844518010541480311
20645477 56 11311788297414683143
20645477 70 18267284577816446413
20681677 274 18270119157769311827
21029758 27 18412263905007510068
21713013 43 17749383758715490759
221490 88 18335142033062213578
22950370 63 18411426098442412070
23402539 116 18058436634803318830
23402655 69 11674873398793231931
23559900 14 18259979396596792517
26918003 58 18337668616230349670
3286 77 18338517546860659047
5104073 3 18202006559833154833
5493415 88 18410853269884959313
76465 3 18410572937654639327
8809292 202 18333733515928330171

> <PUBCHEM_SHAPE_MULTIPOLES>
286.09
9.64
2.38
0.9
1.58
0.11
-0.05
-8.16
1.14
0.4
0.43
-0.35
-0.02
0.52

> <PUBCHEM_SHAPE_SELFOVERLAP>
531.648

> <PUBCHEM_SHAPE_VOLUME>
179.3

> <PUBCHEM_COORDINATE_TYPE>
2
5
10

$$$$
