71587178
  -OEChem-11232108453D

 27 27  0     1  0  0  0  0  0999 V2000
   -0.5828   -0.3875   -0.2822 O   0  0  0  0  0  0  0  0  0  0  0  0
   -0.4658    1.9575   -0.2126 O   0  0  0  0  0  0  0  0  0  0  0  0
   -2.9666   -1.9792   -0.1272 O   0  0  0  0  0  0  0  0  0  0  0  0
    0.2585    0.7530   -0.5000 C   0  0  1  0  0  0  0  0  0  0  0  0
    1.4777    0.6563    0.3967 C   0  0  0  0  0  0  0  0  0  0  0  0
   -1.9034    0.1573   -0.2361 C   0  0  2  0  0  0  0  0  0  0  0  0
    2.3299   -0.6039    0.1523 C   0  0  0  0  0  0  0  0  0  0  0  0
   -1.6825    1.5133    0.3895 C   0  0  0  0  0  0  0  0  0  0  0  0
   -2.8249   -0.7436    0.5577 C   0  0  0  0  0  0  0  0  0  0  0  0
    2.8629   -0.6757   -1.2794 C   0  0  0  0  0  0  0  0  0  0  0  0
    3.4970   -0.6473    1.1414 C   0  0  0  0  0  0  0  0  0  0  0  0
    0.5355    0.7904   -1.5581 H   0  0  0  0  0  0  0  0  0  0  0  0
    2.0905    1.5587    0.2741 H   0  0  0  0  0  0  0  0  0  0  0  0
    1.1488    0.6592    1.4447 H   0  0  0  0  0  0  0  0  0  0  0  0
   -2.2457    0.2489   -1.2746 H   0  0  0  0  0  0  0  0  0  0  0  0
    1.7132   -1.4934    0.3321 H   0  0  0  0  0  0  0  0  0  0  0  0
   -2.4907    2.2206    0.1857 H   0  0  0  0  0  0  0  0  0  0  0  0
   -1.5203    1.4522    1.4715 H   0  0  0  0  0  0  0  0  0  0  0  0
   -3.8147   -0.2908    0.6704 H   0  0  0  0  0  0  0  0  0  0  0  0
   -2.4085   -0.9588    1.5472 H   0  0  0  0  0  0  0  0  0  0  0  0
    3.4159    0.2320   -1.5433 H   0  0  0  0  0  0  0  0  0  0  0  0
    2.0524   -0.8065   -2.0025 H   0  0  0  0  0  0  0  0  0  0  0  0
    3.5393   -1.5292   -1.3992 H   0  0  0  0  0  0  0  0  0  0  0  0
    4.1644    0.2107    1.0067 H   0  0  0  0  0  0  0  0  0  0  0  0
    4.0873   -1.5602    1.0082 H   0  0  0  0  0  0  0  0  0  0  0  0
    3.1323   -0.6348    2.1739 H   0  0  0  0  0  0  0  0  0  0  0  0
   -3.5625   -2.5340    0.4045 H   0  0  0  0  0  0  0  0  0  0  0  0
  1  4  1  0  0  0  0
  1  6  1  0  0  0  0
  2  4  1  0  0  0  0
  2  8  1  0  0  0  0
  3  9  1  0  0  0  0
  3 27  1  0  0  0  0
  4  5  1  0  0  0  0
  4 12  1  0  0  0  0
  5  7  1  0  0  0  0
  5 13  1  0  0  0  0
  5 14  1  0  0  0  0
  6  8  1  0  0  0  0
  6  9  1  0  0  0  0
  6 15  1  0  0  0  0
  7 10  1  0  0  0  0
  7 11  1  0  0  0  0
  7 16  1  0  0  0  0
  8 17  1  0  0  0  0
  8 18  1  0  0  0  0
  9 19  1  0  0  0  0
  9 20  1  0  0  0  0
 10 21  1  0  0  0  0
 10 22  1  0  0  0  0
 10 23  1  0  0  0  0
 11 24  1  0  0  0  0
 11 25  1  0  0  0  0
 11 26  1  0  0  0  0
M  END
> <PUBCHEM_COMPOUND_CID>
71587178

> <PUBCHEM_CONFORMER_RMSD>
0.6

> <PUBCHEM_CONFORMER_DIVERSEORDER>
1
56
11
39
19
36
43
14
49
55
21
53
6
17
50
40
54
38
15
46
22
24
4
13
51
42
44
30
5
9
45
12
52
41
29
3
37
10
28
48
16
47
20
23
8
2
33
34
27
18
31
7
35
32
25
26

> <PUBCHEM_MMFF94_PARTIAL_CHARGES>
8
1 -0.56
2 -0.56
27 0.4
3 -0.68
4 0.56
6 0.28
8 0.28
9 0.28

> <PUBCHEM_EFFECTIVE_ROTOR_COUNT>
4

> <PUBCHEM_PHARMACOPHORE_FEATURES>
6
1 1 acceptor
1 2 acceptor
1 3 acceptor
1 3 donor
3 7 10 11 hydrophobe
5 1 2 4 6 8 rings

> <PUBCHEM_HEAVY_ATOM_COUNT>
11

> <PUBCHEM_ATOM_DEF_STEREO_COUNT>
0

> <PUBCHEM_ATOM_UDEF_STEREO_COUNT>
2

> <PUBCHEM_BOND_DEF_STEREO_COUNT>
0

> <PUBCHEM_BOND_UDEF_STEREO_COUNT>
0

> <PUBCHEM_ISOTOPIC_ATOM_COUNT>
0

> <PUBCHEM_COMPONENT_COUNT>
1

> <PUBCHEM_CACTVS_TAUTO_COUNT>
1

> <PUBCHEM_CONFORMER_ID>
0444556A00000001

> <PUBCHEM_MMFF94_ENERGY>
19.732

> <PUBCHEM_FEATURE_SELFOVERLAP>
30.489

> <PUBCHEM_SHAPE_FINGERPRINT>
10857977 72 18343580733213052136
11769659 78 18260542355134737227
12932764 1 17749962059225062116
14128692 85 18261121815005780517
16945 1 18266462005437615213
18186145 218 12612749107740645134
18342897 69 18408885131080785011
20279233 1 18130500834458769166
20281407 28 18341899575639332298
20645464 45 17774145796097798800
20645477 70 17905605859105806407
20711983 138 17487626217020648714
20715346 28 17632011953665949260
20871998 184 18273492360131735511
20871998 22 18342746238178847302
21061003 4 17346590872746757608
23552423 10 18187373176289772477
3248919 1 18200589203277072676
369184 2 15697706022089545036
449060 23 18411989069522737647

> <PUBCHEM_SHAPE_MULTIPOLES>
208.77
5.44
1.64
0.98
1.65
0.1
-0.04
-2.68
0.81
-1.35
-0.01
0.82
-0.13
0

> <PUBCHEM_SHAPE_SELFOVERLAP>
402.02

> <PUBCHEM_SHAPE_VOLUME>
128.6

> <PUBCHEM_COORDINATE_TYPE>
2
5
10

$$$$
