71587032
  -OEChem-11232109003D

 35 36  0     1  0  0  0  0  0999 V2000
    0.0562   -1.5736   -0.7853 O   0  0  0  0  0  0  0  0  0  0  0  0
    2.6184    0.7116    0.2153 O   0  0  0  0  0  0  0  0  0  0  0  0
    2.7857   -1.3214   -0.8750 O   0  0  0  0  0  0  0  0  0  0  0  0
    0.7404   -0.6862    0.1091 C   0  0  1  0  0  0  0  0  0  0  0  0
   -0.3410   -0.1948   -0.8763 C   0  0  2  0  0  0  0  0  0  0  0  0
    0.4018   -0.9355    1.5510 C   0  0  0  0  0  0  0  0  0  0  0  0
   -1.6927    0.1572   -0.3715 C   0  0  0  0  0  0  0  0  0  0  0  0
    0.0493    0.4408   -2.1796 C   0  0  0  0  0  0  0  0  0  0  0  0
    2.1566   -0.4834   -0.2446 C   0  0  0  0  0  0  0  0  0  0  0  0
    0.9684   -2.2308    2.0611 C   0  0  0  0  0  0  0  0  0  0  0  0
   -1.8412    1.1699    0.5761 C   0  0  0  0  0  0  0  0  0  0  0  0
   -2.8136   -0.5247   -0.8449 C   0  0  0  0  0  0  0  0  0  0  0  0
   -3.1107    1.5007    1.0504 C   0  0  0  0  0  0  0  0  0  0  0  0
   -4.0830   -0.1940   -0.3708 C   0  0  0  0  0  0  0  0  0  0  0  0
    3.9890    0.9958   -0.0830 C   0  0  0  0  0  0  0  0  0  0  0  0
   -4.2315    0.8187    0.5769 C   0  0  0  0  0  0  0  0  0  0  0  0
    4.3481    2.3497    0.4910 C   0  0  0  0  0  0  0  0  0  0  0  0
    0.7764   -0.1046    2.1603 H   0  0  0  0  0  0  0  0  0  0  0  0
   -0.6781   -0.9813    1.7200 H   0  0  0  0  0  0  0  0  0  0  0  0
    0.9439   -0.0154   -2.6163 H   0  0  0  0  0  0  0  0  0  0  0  0
    0.2520    1.5074   -2.0354 H   0  0  0  0  0  0  0  0  0  0  0  0
   -0.7519    0.3427   -2.9204 H   0  0  0  0  0  0  0  0  0  0  0  0
    2.0615   -2.2429    1.9986 H   0  0  0  0  0  0  0  0  0  0  0  0
    0.6931   -2.3832    3.1097 H   0  0  0  0  0  0  0  0  0  0  0  0
    0.5934   -3.0846    1.4870 H   0  0  0  0  0  0  0  0  0  0  0  0
   -0.9777    1.7157    0.9474 H   0  0  0  0  0  0  0  0  0  0  0  0
   -2.7115   -1.3149   -1.5841 H   0  0  0  0  0  0  0  0  0  0  0  0
   -3.2266    2.2905    1.7868 H   0  0  0  0  0  0  0  0  0  0  0  0
   -4.9559   -0.7247   -0.7397 H   0  0  0  0  0  0  0  0  0  0  0  0
    4.6269    0.2238    0.3618 H   0  0  0  0  0  0  0  0  0  0  0  0
    4.1317    1.0042   -1.1693 H   0  0  0  0  0  0  0  0  0  0  0  0
   -5.2200    1.0765    0.9457 H   0  0  0  0  0  0  0  0  0  0  0  0
    3.7057    3.1296    0.0689 H   0  0  0  0  0  0  0  0  0  0  0  0
    4.1927    2.3622    1.5748 H   0  0  0  0  0  0  0  0  0  0  0  0
    5.3918    2.5995    0.2807 H   0  0  0  0  0  0  0  0  0  0  0  0
  1  4  1  0  0  0  0
  1  5  1  0  0  0  0
  2  9  1  0  0  0  0
  2 15  1  0  0  0  0
  3  9  2  0  0  0  0
  4  5  1  0  0  0  0
  4  6  1  0  0  0  0
  4  9  1  0  0  0  0
  5  7  1  0  0  0  0
  5  8  1  0  0  0  0
  6 10  1  0  0  0  0
  6 18  1  0  0  0  0
  6 19  1  0  0  0  0
  7 11  2  0  0  0  0
  7 12  1  0  0  0  0
  8 20  1  0  0  0  0
  8 21  1  0  0  0  0
  8 22  1  0  0  0  0
 10 23  1  0  0  0  0
 10 24  1  0  0  0  0
 10 25  1  0  0  0  0
 11 13  1  0  0  0  0
 11 26  1  0  0  0  0
 12 14  2  0  0  0  0
 12 27  1  0  0  0  0
 13 16  2  0  0  0  0
 13 28  1  0  0  0  0
 14 16  1  0  0  0  0
 14 29  1  0  0  0  0
 15 17  1  0  0  0  0
 15 30  1  0  0  0  0
 15 31  1  0  0  0  0
 16 32  1  0  0  0  0
 17 33  1  0  0  0  0
 17 34  1  0  0  0  0
 17 35  1  0  0  0  0
M  END
> <PUBCHEM_COMPOUND_CID>
71587032

> <PUBCHEM_CONFORMER_RMSD>
0.8

> <PUBCHEM_CONFORMER_DIVERSEORDER>
1
2
6
9
4
10
3
8
7
5

> <PUBCHEM_MMFF94_PARTIAL_CHARGES>
20
1 -0.3
11 -0.15
12 -0.15
13 -0.15
14 -0.15
15 0.28
16 -0.15
2 -0.43
26 0.15
27 0.15
28 0.15
29 0.15
3 -0.57
32 0.15
4 0.05
5 0.09
6 0.09
7 -0.03
8 0.09
9 0.72

> <PUBCHEM_EFFECTIVE_ROTOR_COUNT>
5.6

> <PUBCHEM_PHARMACOPHORE_FEATURES>
4
1 1 acceptor
1 10 hydrophobe
1 3 acceptor
6 7 11 12 13 14 16 rings

> <PUBCHEM_HEAVY_ATOM_COUNT>
17

> <PUBCHEM_ATOM_DEF_STEREO_COUNT>
2

> <PUBCHEM_ATOM_UDEF_STEREO_COUNT>
0

> <PUBCHEM_BOND_DEF_STEREO_COUNT>
0

> <PUBCHEM_BOND_UDEF_STEREO_COUNT>
0

> <PUBCHEM_ISOTOPIC_ATOM_COUNT>
0

> <PUBCHEM_COMPONENT_COUNT>
1

> <PUBCHEM_CACTVS_TAUTO_COUNT>
1

> <PUBCHEM_CONFORMER_ID>
044454D800000001

> <PUBCHEM_MMFF94_ENERGY>
30.1583

> <PUBCHEM_FEATURE_SELFOVERLAP>
20.302

> <PUBCHEM_SHAPE_FINGERPRINT>
104564 63 13541922148132394947
11031198 65 15410333243901862565
11132069 177 17095522919739808098
122479 349 18264490762052587352
12491281 212 18343590658835006918
12808571 1 17917706881546947143
12932764 1 18042967575774006503
13296908 3 16298953013990031339
14178342 30 17241059725391000457
14787075 74 18048315836565357131
14957384 54 17908431247174511641
15207287 21 15502374543447426763
15309172 13 17385441037940163818
15375358 24 16008745780419189919
15848702 105 17845934125640457592
16945 1 17240772756834600303
18186145 218 18260552199468772606
18981168 100 17558519500906187449
19422 9 18060419075648167543
20233049 118 15840983339355427858
204376 136 17676772062583435960
20645476 183 17060052687734092476
21524375 3 18337386140906112632
22079108 93 18261395606322896073
23114952 82 16055499161883792493
23236772 104 18410011040004648203
23419403 2 17268357536496641419
23559900 14 17702102452556066311
24859131 72 13768191797021409576
298252 57 17846216704518604534
3286 77 18189055292094905854
4072396 5 15864061079342287261
4340502 62 17967822643807059299
474 4 18335421330659797356
568465 68 16660660552248569689
633830 44 18335708217073280700
76465 3 13985236569561102673
81228 2 17243589881961676234
9981440 41 17264388325680862680

> <PUBCHEM_SHAPE_MULTIPOLES>
332.24
7.41
1.92
1.6
0.62
0.38
0.14
-4.44
-1.33
1.7
-0.98
-0.08
0.28
-0.24

> <PUBCHEM_SHAPE_SELFOVERLAP>
688.995

> <PUBCHEM_SHAPE_VOLUME>
191.5

> <PUBCHEM_COORDINATE_TYPE>
2
5
10

$$$$
