71587283
  -OEChem-11232108473D

 25 24  0     0  0  0  0  0  0999 V2000
   -4.2712   -1.0731    0.0001 S   0  0  0  0  0  0  0  0  0  0  0  0
    0.6562   -0.2724   -0.0113 O   0  0  0  0  0  0  0  0  0  0  0  0
   -0.5975    1.6682    0.0062 O   0  0  0  0  0  0  0  0  0  0  0  0
    3.0421   -0.4747   -0.0200 C   0  0  0  0  0  0  0  0  0  0  0  0
    4.3726    0.2725   -0.0027 C   0  0  0  0  0  0  0  0  0  0  0  0
    1.8594    0.4835   -0.0096 C   0  0  0  0  0  0  0  0  0  0  0  0
    5.5505   -0.6881    0.0306 C   0  0  0  0  0  0  0  0  0  0  0  0
   -0.5012    0.4512   -0.0027 C   0  0  0  0  0  0  0  0  0  0  0  0
   -1.6354   -0.4995   -0.0056 C   0  0  0  0  0  0  0  0  0  0  0  0
   -2.8894   -0.0315    0.0020 C   0  0  0  0  0  0  0  0  0  0  0  0
   -5.5861    0.1640    0.0130 C   0  0  0  0  0  0  0  0  0  0  0  0
    2.9802   -1.1211   -0.9044 H   0  0  0  0  0  0  0  0  0  0  0  0
    2.9718   -1.1449    0.8460 H   0  0  0  0  0  0  0  0  0  0  0  0
    4.4209    0.9280    0.8747 H   0  0  0  0  0  0  0  0  0  0  0  0
    4.4524    0.9113   -0.8899 H   0  0  0  0  0  0  0  0  0  0  0  0
    1.8890    1.1255   -0.8978 H   0  0  0  0  0  0  0  0  0  0  0  0
    1.8932    1.1119    0.8882 H   0  0  0  0  0  0  0  0  0  0  0  0
    5.5502   -1.3397   -0.8491 H   0  0  0  0  0  0  0  0  0  0  0  0
    6.4931   -0.1319    0.0410 H   0  0  0  0  0  0  0  0  0  0  0  0
    5.5181   -1.3182    0.9252 H   0  0  0  0  0  0  0  0  0  0  0  0
   -1.4154   -1.5623   -0.0136 H   0  0  0  0  0  0  0  0  0  0  0  0
   -3.0733    1.0384    0.0100 H   0  0  0  0  0  0  0  0  0  0  0  0
   -6.5561   -0.3402    0.0131 H   0  0  0  0  0  0  0  0  0  0  0  0
   -5.5258    0.7993   -0.8753 H   0  0  0  0  0  0  0  0  0  0  0  0
   -5.5194    0.7875    0.9091 H   0  0  0  0  0  0  0  0  0  0  0  0
  1 10  1  0  0  0  0
  1 11  1  0  0  0  0
  2  6  1  0  0  0  0
  2  8  1  0  0  0  0
  3  8  2  0  0  0  0
  4  5  1  0  0  0  0
  4  6  1  0  0  0  0
  4 12  1  0  0  0  0
  4 13  1  0  0  0  0
  5  7  1  0  0  0  0
  5 14  1  0  0  0  0
  5 15  1  0  0  0  0
  6 16  1  0  0  0  0
  6 17  1  0  0  0  0
  7 18  1  0  0  0  0
  7 19  1  0  0  0  0
  7 20  1  0  0  0  0
  8  9  1  0  0  0  0
  9 10  2  0  0  0  0
  9 21  1  0  0  0  0
 10 22  1  0  0  0  0
 11 23  1  0  0  0  0
 11 24  1  0  0  0  0
 11 25  1  0  0  0  0
M  END
> <PUBCHEM_COMPOUND_CID>
71587283

> <PUBCHEM_CONFORMER_RMSD>
0.8

> <PUBCHEM_CONFORMER_DIVERSEORDER>
1
64
68
39
53
29
4
22
9
41
16
46
24
32
47
62
66
2
67
26
23
43
60
11
49
8
25
45
14
5
58
61
40
12
56
42
18
6
50
55
52
59
31
51
13
69
36
27
10
48
57
28
3
20
21
7
70
34
37
65
38
35
33
54
19
44
30
63
15
17

> <PUBCHEM_MMFF94_PARTIAL_CHARGES>
10
1 -0.33
10 -0.05
11 0.23
2 -0.43
21 0.15
22 0.15
3 -0.57
6 0.28
8 0.71
9 -0.14

> <PUBCHEM_EFFECTIVE_ROTOR_COUNT>
6

> <PUBCHEM_PHARMACOPHORE_FEATURES>
3
1 11 hydrophobe
1 3 acceptor
1 7 hydrophobe

> <PUBCHEM_HEAVY_ATOM_COUNT>
11

> <PUBCHEM_ATOM_DEF_STEREO_COUNT>
0

> <PUBCHEM_ATOM_UDEF_STEREO_COUNT>
0

> <PUBCHEM_BOND_DEF_STEREO_COUNT>
1

> <PUBCHEM_BOND_UDEF_STEREO_COUNT>
0

> <PUBCHEM_ISOTOPIC_ATOM_COUNT>
0

> <PUBCHEM_COMPONENT_COUNT>
1

> <PUBCHEM_CACTVS_TAUTO_COUNT>
1

> <PUBCHEM_CONFORMER_ID>
044455D300000001

> <PUBCHEM_MMFF94_ENERGY>
8.7748

> <PUBCHEM_FEATURE_SELFOVERLAP>
15.223

> <PUBCHEM_SHAPE_FINGERPRINT>
11062470 55 12468355756577264538
11287383 113 15357705218395622085
11401426 45 18342174479695784279
114248 4 14634587181278835259
12815109 37 18411981364335356911
13690532 89 18333731321179053166
14123238 8 18412263947461102750
14251718 22 10665231457930926097
14251731 8 18186799175870470391
14252887 29 17489317373442128062
17834072 33 18060136599801665029
17834072 8 18335132090851181541
17834076 25 17095523993602866867
187816 3 17240203231091050489
20605781 2 8430316835602284134
20645477 70 13262944184262197360
20719005 15 18410855468733959622
20767249 13 18342738528944627031
20767249 213 11167936970180033370
21119208 17 16008746926611163326
22485316 2 18412260653411266151
23218964 4 18335419054527044861
23402539 116 18273209807561267223
23402655 69 11891321067614917019
23557571 272 18334578988725312548
42788 4 18410292519012633903
4463277 17 18410293622661265728
449060 50 11383834870292197128
68521 5 18408886200823540989

> <PUBCHEM_SHAPE_MULTIPOLES>
218.49
12.6
1.07
0.61
1.99
0.17
0
-2.93
0.1
-0.27
0
-0.04
-0.02
-0.01

> <PUBCHEM_SHAPE_SELFOVERLAP>
390.714

> <PUBCHEM_SHAPE_VOLUME>
142.4

> <PUBCHEM_COORDINATE_TYPE>
2
5
10

$$$$
