71587448
  -OEChem-11232108413D

 35 36  0     1  0  0  0  0  0999 V2000
   -2.5713    0.1318    1.0067 O   0  0  0  0  0  0  0  0  0  0  0  0
   -2.4442   -1.1140   -0.9800 O   0  0  0  0  0  0  0  0  0  0  0  0
    2.2893    0.3005    0.3163 C   0  0  1  0  0  0  0  0  0  0  0  0
    1.4104    0.7157   -0.8691 C   0  0  0  0  0  0  0  0  0  0  0  0
   -0.0779    0.6207   -0.5176 C   0  0  0  0  0  0  0  0  0  0  0  0
   -0.4434   -0.6342    0.2338 C   0  0  0  0  0  0  0  0  0  0  0  0
    1.9624   -1.1416    0.7390 C   0  0  0  0  0  0  0  0  0  0  0  0
   -1.8968   -0.9394    0.3341 C   0  0  1  0  0  0  0  0  0  0  0  0
    0.4898   -1.4301    0.7830 C   0  0  0  0  0  0  0  0  0  0  0  0
   -3.7456    0.3580    0.2228 C   0  0  2  0  0  0  0  0  0  0  0  0
    3.7452    0.4453   -0.0096 C   0  0  0  0  0  0  0  0  0  0  0  0
   -3.2893    0.0215   -1.1760 C   0  0  0  0  0  0  0  0  0  0  0  0
   -4.2299    1.7827    0.3866 C   0  0  0  0  0  0  0  0  0  0  0  0
    4.2557   -0.3930   -1.1439 C   0  0  0  0  0  0  0  0  0  0  0  0
    4.5457    1.2763    0.6740 C   0  0  0  0  0  0  0  0  0  0  0  0
    2.0358    0.9603    1.1593 H   0  0  0  0  0  0  0  0  0  0  0  0
    1.5909    0.0667   -1.7355 H   0  0  0  0  0  0  0  0  0  0  0  0
    1.6426    1.7397   -1.1869 H   0  0  0  0  0  0  0  0  0  0  0  0
   -0.6180    0.6816   -1.4656 H   0  0  0  0  0  0  0  0  0  0  0  0
   -0.3654    1.4921    0.0831 H   0  0  0  0  0  0  0  0  0  0  0  0
    2.3872   -1.3261    1.7339 H   0  0  0  0  0  0  0  0  0  0  0  0
    2.4010   -1.8869    0.0679 H   0  0  0  0  0  0  0  0  0  0  0  0
   -2.0851   -1.8622    0.8946 H   0  0  0  0  0  0  0  0  0  0  0  0
    0.1903   -2.3375    1.3010 H   0  0  0  0  0  0  0  0  0  0  0  0
   -4.5119   -0.3492    0.5628 H   0  0  0  0  0  0  0  0  0  0  0  0
   -2.7193    0.8295   -1.6423 H   0  0  0  0  0  0  0  0  0  0  0  0
   -4.1194   -0.2406   -1.8381 H   0  0  0  0  0  0  0  0  0  0  0  0
   -5.1073    1.9775   -0.2371 H   0  0  0  0  0  0  0  0  0  0  0  0
   -3.4437    2.4987    0.1234 H   0  0  0  0  0  0  0  0  0  0  0  0
   -4.4914    1.9774    1.4321 H   0  0  0  0  0  0  0  0  0  0  0  0
    4.2075   -1.4615   -0.9202 H   0  0  0  0  0  0  0  0  0  0  0  0
    3.7163   -0.1969   -2.0740 H   0  0  0  0  0  0  0  0  0  0  0  0
    5.3098   -0.1717   -1.3509 H   0  0  0  0  0  0  0  0  0  0  0  0
    5.5986    1.3735    0.4308 H   0  0  0  0  0  0  0  0  0  0  0  0
    4.1686    1.8792    1.4934 H   0  0  0  0  0  0  0  0  0  0  0  0
  1  8  1  0  0  0  0
  1 10  1  0  0  0  0
  2  8  1  0  0  0  0
  2 12  1  0  0  0  0
  3  4  1  0  0  0  0
  3  7  1  0  0  0  0
  3 11  1  0  0  0  0
  3 16  1  0  0  0  0
  4  5  1  0  0  0  0
  4 17  1  0  0  0  0
  4 18  1  0  0  0  0
  5  6  1  0  0  0  0
  5 19  1  0  0  0  0
  5 20  1  0  0  0  0
  6  8  1  0  0  0  0
  6  9  2  0  0  0  0
  7  9  1  0  0  0  0
  7 21  1  0  0  0  0
  7 22  1  0  0  0  0
  8 23  1  0  0  0  0
  9 24  1  0  0  0  0
 10 12  1  0  0  0  0
 10 13  1  0  0  0  0
 10 25  1  0  0  0  0
 11 14  1  0  0  0  0
 11 15  2  0  0  0  0
 12 26  1  0  0  0  0
 12 27  1  0  0  0  0
 13 28  1  0  0  0  0
 13 29  1  0  0  0  0
 13 30  1  0  0  0  0
 14 31  1  0  0  0  0
 14 32  1  0  0  0  0
 14 33  1  0  0  0  0
 15 34  1  0  0  0  0
 15 35  1  0  0  0  0
M  END
> <PUBCHEM_COMPOUND_CID>
71587448

> <PUBCHEM_CONFORMER_RMSD>
0.6

> <PUBCHEM_CONFORMER_DIVERSEORDER>
1
49
13
3
45
21
7
36
14
9
37
41
34
39
5
26
33
4
50
52
40
22
42
25
12
48
18
6
46
29
23
51
38
32
2
17
19
20
27
8
16
35
28
10
30
47
44
24
15
31
43
11

> <PUBCHEM_MMFF94_PARTIAL_CHARGES>
16
1 -0.56
10 0.28
11 -0.28
12 0.28
14 0.14
15 -0.3
2 -0.56
24 0.15
3 0.14
34 0.15
35 0.15
5 0.14
6 -0.28
7 0.14
8 0.7
9 -0.29

> <PUBCHEM_EFFECTIVE_ROTOR_COUNT>
3.8

> <PUBCHEM_PHARMACOPHORE_FEATURES>
4
1 1 acceptor
1 2 acceptor
5 1 2 8 10 12 rings
6 3 4 5 6 7 9 rings

> <PUBCHEM_HEAVY_ATOM_COUNT>
15

> <PUBCHEM_ATOM_DEF_STEREO_COUNT>
0

> <PUBCHEM_ATOM_UDEF_STEREO_COUNT>
3

> <PUBCHEM_BOND_DEF_STEREO_COUNT>
0

> <PUBCHEM_BOND_UDEF_STEREO_COUNT>
0

> <PUBCHEM_ISOTOPIC_ATOM_COUNT>
0

> <PUBCHEM_COMPONENT_COUNT>
1

> <PUBCHEM_CACTVS_TAUTO_COUNT>
1

> <PUBCHEM_CONFORMER_ID>
0444567800000001

> <PUBCHEM_MMFF94_ENERGY>
20.5629

> <PUBCHEM_FEATURE_SELFOVERLAP>
20.338

> <PUBCHEM_SHAPE_FINGERPRINT>
10014705 185 18273493485661307529
10354089 29 18113909234329666193
10980938 120 17894624825365952826
11046707 91 9367347033145904545
11132069 177 17968089850369571334
11401426 45 18335412500238185044
11543360 7 17202759422973927692
12251169 10 16588312700131046091
12346645 44 18408600348894737034
124424 183 15410897340389940758
12500047 106 17560795550105070254
12633257 1 16226343563830908897
13675066 3 18409176523115779160
13760787 19 16487259889188746822
13760787 5 17167859781668751254
14004511 7 18335702758053861357
15209294 21 18408880733103092576
15219456 202 16878216464013063619
15309172 13 17894345596530459395
15653759 3 14996281431219718413
15775835 57 18412544293172638001
16945 1 17822288015730724694
18186145 218 18407759252980964756
18222031 100 10807934856102550856
19026448 4 17775288304622199446
19026448 5 17132121247060929210
200 152 10663814166221087377
20112054 13 18333453144447173057
20279233 1 16081364142409040195
20645464 45 16370442250726393675
20645476 183 17988636402868049967
20645477 56 18060140963894541761
20645477 70 16917079836758420390
20871999 31 17060047182018470359
23402539 116 18131064940148848076
23402655 69 18131072628003190360
23557571 272 17561365123377875649
23559900 14 17203611476251475390
296302 2 17775568658369755348
4028521 119 18130788928059568217
42 15 12396293746996529744
449060 62 18040436568863635786
4990 188 18272657835528625062
5104073 3 18187363216281414058
57812782 119 13830131689218158294
633830 44 18408606976503963612

> <PUBCHEM_SHAPE_MULTIPOLES>
296.95
8.89
1.42
1.1
1.21
0.04
-0.19
3.57
-0.06
-0.31
0.27
0.04
-0.03
-0.15

> <PUBCHEM_SHAPE_SELFOVERLAP>
606.036

> <PUBCHEM_SHAPE_VOLUME>
171.6

> <PUBCHEM_COORDINATE_TYPE>
2
5
10

$$$$
