71587757
  -OEChem-11232109243D

 28 28  0     1  0  0  0  0  0999 V2000
    0.5834   -0.2834    0.6679 O   0  0  0  0  0  0  0  0  0  0  0  0
   -3.1285    1.2966    0.3449 O   0  0  0  0  0  0  0  0  0  0  0  0
   -0.4477   -0.8350   -0.1677 C   0  0  2  0  0  0  0  0  0  0  0  0
    1.5332    0.4195   -0.1612 C   0  0  1  0  0  0  0  0  0  0  0  0
   -0.3870   -0.0654   -1.4737 C   0  0  0  0  0  0  0  0  0  0  0  0
    1.0978    0.1784   -1.6088 C   0  0  0  0  0  0  0  0  0  0  0  0
   -1.7872   -0.7296    0.5346 C   0  0  2  0  0  0  0  0  0  0  0  0
    1.4695    1.8993    0.2207 C   0  0  0  0  0  0  0  0  0  0  0  0
    2.9028   -0.1199    0.1100 C   0  0  0  0  0  0  0  0  0  0  0  0
   -2.8848   -1.4375   -0.2559 C   0  0  0  0  0  0  0  0  0  0  0  0
   -2.1219    0.7344    0.7637 C   0  0  0  0  0  0  0  0  0  0  0  0
    3.1703   -1.0573    1.0256 C   0  0  0  0  0  0  0  0  0  0  0  0
   -0.1881   -1.8881   -0.3354 H   0  0  0  0  0  0  0  0  0  0  0  0
   -0.9032    0.8990   -1.4345 H   0  0  0  0  0  0  0  0  0  0  0  0
   -0.7979   -0.6300   -2.3160 H   0  0  0  0  0  0  0  0  0  0  0  0
    1.5714   -0.7224   -2.0211 H   0  0  0  0  0  0  0  0  0  0  0  0
    1.3337    1.0096   -2.2811 H   0  0  0  0  0  0  0  0  0  0  0  0
   -1.7156   -1.1805    1.5322 H   0  0  0  0  0  0  0  0  0  0  0  0
    0.4675    2.3109    0.0591 H   0  0  0  0  0  0  0  0  0  0  0  0
    2.1797    2.4982   -0.3601 H   0  0  0  0  0  0  0  0  0  0  0  0
    1.6898    2.0400    1.2857 H   0  0  0  0  0  0  0  0  0  0  0  0
    3.7268    0.2819   -0.4749 H   0  0  0  0  0  0  0  0  0  0  0  0
   -3.8343   -1.4011    0.2896 H   0  0  0  0  0  0  0  0  0  0  0  0
   -2.6323   -2.4904   -0.4184 H   0  0  0  0  0  0  0  0  0  0  0  0
   -3.0547   -0.9701   -1.2318 H   0  0  0  0  0  0  0  0  0  0  0  0
   -1.4030    1.2915    1.3891 H   0  0  0  0  0  0  0  0  0  0  0  0
    4.1918   -1.3967    1.1649 H   0  0  0  0  0  0  0  0  0  0  0  0
    2.4132   -1.5101    1.6544 H   0  0  0  0  0  0  0  0  0  0  0  0
  1  3  1  0  0  0  0
  1  4  1  0  0  0  0
  2 11  2  0  0  0  0
  3  5  1  0  0  0  0
  3  7  1  0  0  0  0
  3 13  1  0  0  0  0
  4  6  1  0  0  0  0
  4  8  1  0  0  0  0
  4  9  1  0  0  0  0
  5  6  1  0  0  0  0
  5 14  1  0  0  0  0
  5 15  1  0  0  0  0
  6 16  1  0  0  0  0
  6 17  1  0  0  0  0
  7 10  1  0  0  0  0
  7 11  1  0  0  0  0
  7 18  1  0  0  0  0
  8 19  1  0  0  0  0
  8 20  1  0  0  0  0
  8 21  1  0  0  0  0
  9 12  2  0  0  0  0
  9 22  1  0  0  0  0
 10 23  1  0  0  0  0
 10 24  1  0  0  0  0
 10 25  1  0  0  0  0
 11 26  1  0  0  0  0
 12 27  1  0  0  0  0
 12 28  1  0  0  0  0
M  END
> <PUBCHEM_COMPOUND_CID>
71587757

> <PUBCHEM_CONFORMER_RMSD>
0.6

> <PUBCHEM_CONFORMER_DIVERSEORDER>
1
3
15
9
2
5
6
7
12
10
4
14
8
13
11

> <PUBCHEM_MMFF94_PARTIAL_CHARGES>
12
1 -0.56
11 0.45
12 -0.3
2 -0.57
22 0.15
26 0.06
27 0.15
28 0.15
3 0.28
4 0.42
7 0.06
9 -0.29

> <PUBCHEM_EFFECTIVE_ROTOR_COUNT>
4

> <PUBCHEM_PHARMACOPHORE_FEATURES>
5
1 1 acceptor
1 10 hydrophobe
1 12 hydrophobe
1 2 acceptor
5 1 3 4 5 6 rings

> <PUBCHEM_HEAVY_ATOM_COUNT>
12

> <PUBCHEM_ATOM_DEF_STEREO_COUNT>
3

> <PUBCHEM_ATOM_UDEF_STEREO_COUNT>
0

> <PUBCHEM_BOND_DEF_STEREO_COUNT>
0

> <PUBCHEM_BOND_UDEF_STEREO_COUNT>
0

> <PUBCHEM_ISOTOPIC_ATOM_COUNT>
0

> <PUBCHEM_COMPONENT_COUNT>
1

> <PUBCHEM_CACTVS_TAUTO_COUNT>
2

> <PUBCHEM_CONFORMER_ID>
044457AD00000001

> <PUBCHEM_MMFF94_ENERGY>
24.2797

> <PUBCHEM_FEATURE_SELFOVERLAP>
25.372

> <PUBCHEM_SHAPE_FINGERPRINT>
10353120 184 14924229287495230654
11769659 78 18261382394893074306
12423570 1 17532098180766600406
124424 183 18411416168150982608
12897270 3 8934998161682716826
12932764 1 18337688510597862571
15375462 478 18131061671066741185
15775835 57 18334587836305194281
15852999 172 17060056995607544927
16945 1 18129113250615808145
17834069 15 18261108517665712580
17841504 4 18338512044875775192
18511873 20 18261675857102064960
19973954 147 18059027167047524009
20082192 1 17630356191964727907
201361 129 18188501288616644276
20281407 28 17240474793663154034
20653091 64 18336263560935091392
20715346 28 17131839763256926814
207724 885 17022911137534327747
21061003 4 18189591909898955528
21501502 16 18339364166197566149
230 275 15985112920124914872
23402539 116 18059281081683274533
2748010 2 16916526777729488175
3248919 1 17418106416025971201
369184 2 18339080501008885787
5084963 1 17677046953269955607
528716 315 9439395848249457219
57812782 119 17846776317045059947
8030462 33 18116163335876407447

> <PUBCHEM_SHAPE_MULTIPOLES>
235.22
4.78
1.48
1.24
0.49
0.37
0.46
-0.71
-1.33
0.19
-0.27
-0.23
-0.01
-0.57

> <PUBCHEM_SHAPE_SELFOVERLAP>
469.165

> <PUBCHEM_SHAPE_VOLUME>
141

> <PUBCHEM_COORDINATE_TYPE>
2
5
10

$$$$
