71587758
  -OEChem-11232109443D

 28 28  0     1  0  0  0  0  0999 V2000
    0.6077   -0.3770    0.6928 O   0  0  0  0  0  0  0  0  0  0  0  0
   -3.9679    0.2784    0.0158 O   0  0  0  0  0  0  0  0  0  0  0  0
   -0.5196    0.4249    0.3010 C   0  0  1  0  0  0  0  0  0  0  0  0
    1.8200    0.2746    0.2600 C   0  0  1  0  0  0  0  0  0  0  0  0
   -0.0182    1.3591   -0.7849 C   0  0  0  0  0  0  0  0  0  0  0  0
    1.3954    1.6261   -0.3209 C   0  0  0  0  0  0  0  0  0  0  0  0
   -1.6552   -0.4727   -0.1506 C   0  0  1  0  0  0  0  0  0  0  0  0
    2.7409    0.4420    1.4660 C   0  0  0  0  0  0  0  0  0  0  0  0
    2.4633   -0.6108   -0.7681 C   0  0  0  0  0  0  0  0  0  0  0  0
   -1.9985   -1.5126    0.9132 C   0  0  0  0  0  0  0  0  0  0  0  0
   -2.8614    0.3804   -0.5038 C   0  0  0  0  0  0  0  0  0  0  0  0
    1.9936   -1.8124   -1.1204 C   0  0  0  0  0  0  0  0  0  0  0  0
   -0.8177    1.0108    1.1807 H   0  0  0  0  0  0  0  0  0  0  0  0
   -0.6114    2.2736   -0.8744 H   0  0  0  0  0  0  0  0  0  0  0  0
    0.0012    0.8642   -1.7632 H   0  0  0  0  0  0  0  0  0  0  0  0
    2.0448    1.9894   -1.1239 H   0  0  0  0  0  0  0  0  0  0  0  0
    1.3737    2.3971    0.4599 H   0  0  0  0  0  0  0  0  0  0  0  0
   -1.3697   -1.0163   -1.0599 H   0  0  0  0  0  0  0  0  0  0  0  0
    2.2422    1.0083    2.2612 H   0  0  0  0  0  0  0  0  0  0  0  0
    3.6680    0.9609    1.1998 H   0  0  0  0  0  0  0  0  0  0  0  0
    3.0007   -0.5301    1.9017 H   0  0  0  0  0  0  0  0  0  0  0  0
    3.3690   -0.2480   -1.2483 H   0  0  0  0  0  0  0  0  0  0  0  0
   -1.1595   -2.1917    1.0961 H   0  0  0  0  0  0  0  0  0  0  0  0
   -2.8522   -2.1231    0.5983 H   0  0  0  0  0  0  0  0  0  0  0  0
   -2.2677   -1.0367    1.8627 H   0  0  0  0  0  0  0  0  0  0  0  0
   -2.7057    1.1091   -1.3178 H   0  0  0  0  0  0  0  0  0  0  0  0
    2.5186   -2.3931   -1.8725 H   0  0  0  0  0  0  0  0  0  0  0  0
    1.1043   -2.2595   -0.6933 H   0  0  0  0  0  0  0  0  0  0  0  0
  1  3  1  0  0  0  0
  1  4  1  0  0  0  0
  2 11  2  0  0  0  0
  3  5  1  0  0  0  0
  3  7  1  0  0  0  0
  3 13  1  0  0  0  0
  4  6  1  0  0  0  0
  4  8  1  0  0  0  0
  4  9  1  0  0  0  0
  5  6  1  0  0  0  0
  5 14  1  0  0  0  0
  5 15  1  0  0  0  0
  6 16  1  0  0  0  0
  6 17  1  0  0  0  0
  7 10  1  0  0  0  0
  7 11  1  0  0  0  0
  7 18  1  0  0  0  0
  8 19  1  0  0  0  0
  8 20  1  0  0  0  0
  8 21  1  0  0  0  0
  9 12  2  0  0  0  0
  9 22  1  0  0  0  0
 10 23  1  0  0  0  0
 10 24  1  0  0  0  0
 10 25  1  0  0  0  0
 11 26  1  0  0  0  0
 12 27  1  0  0  0  0
 12 28  1  0  0  0  0
M  END
> <PUBCHEM_COMPOUND_CID>
71587758

> <PUBCHEM_CONFORMER_RMSD>
0.6

> <PUBCHEM_CONFORMER_DIVERSEORDER>
1
11
15
4
3
12
6
16
9
10
8
5
13
7
14
2

> <PUBCHEM_MMFF94_PARTIAL_CHARGES>
12
1 -0.56
11 0.45
12 -0.3
2 -0.57
22 0.15
26 0.06
27 0.15
28 0.15
3 0.28
4 0.42
7 0.06
9 -0.29

> <PUBCHEM_EFFECTIVE_ROTOR_COUNT>
4

> <PUBCHEM_PHARMACOPHORE_FEATURES>
5
1 1 acceptor
1 10 hydrophobe
1 12 hydrophobe
1 2 acceptor
5 1 3 4 5 6 rings

> <PUBCHEM_HEAVY_ATOM_COUNT>
12

> <PUBCHEM_ATOM_DEF_STEREO_COUNT>
3

> <PUBCHEM_ATOM_UDEF_STEREO_COUNT>
0

> <PUBCHEM_BOND_DEF_STEREO_COUNT>
0

> <PUBCHEM_BOND_UDEF_STEREO_COUNT>
0

> <PUBCHEM_ISOTOPIC_ATOM_COUNT>
0

> <PUBCHEM_COMPONENT_COUNT>
1

> <PUBCHEM_CACTVS_TAUTO_COUNT>
2

> <PUBCHEM_CONFORMER_ID>
044457AE00000001

> <PUBCHEM_MMFF94_ENERGY>
24.7927

> <PUBCHEM_FEATURE_SELFOVERLAP>
25.372

> <PUBCHEM_SHAPE_FINGERPRINT>
10219947 1 18272080639194978616
10353120 184 17968099668549031933
10922523 26 18342174423840208173
12423570 1 18268693048032866652
12524768 44 18335701671595947117
12932764 1 17167859794358311781
13571099 22 18202006503845604991
14115302 16 16515405148870673274
14344429 50 17676204688824489636
14648413 74 18263654016117772693
15775835 57 17022903470980820083
16945 1 18186515484305720877
17990270 104 18263651825541903542
18175812 5 18341322392533427328
18186145 218 18337670811507231573
18522853 295 18040716939669735131
19422 9 15068342285470217729
20201158 50 18412829057830806678
20279233 1 18413389851699985387
20645476 183 16371020602042518787
20645477 70 17560517313908130503
20711983 138 18340212881821015507
20711985 344 18046070350195432364
20715346 28 18341899631579460755
21061003 4 17201637741163287358
21501502 16 17897163748201587225
21524375 3 17250909416413971796
232386 152 17603575344497768778
23552423 10 17314797514602984309
2748010 2 18043253637649156077
29004967 10 18343866640743731408
3248919 1 18411698824539053281
581208 293 18060128860402401606
7364860 26 18341055232340401060
8030462 33 17632311080694528481
81228 2 18264774250810219464

> <PUBCHEM_SHAPE_MULTIPOLES>
235.22
4.93
1.6
1.15
3.5
0.27
0.17
0.37
0.23
-0.51
-0.34
-0.64
0.16
0.82

> <PUBCHEM_SHAPE_SELFOVERLAP>
468.223

> <PUBCHEM_SHAPE_VOLUME>
141.4

> <PUBCHEM_COORDINATE_TYPE>
2
5
10

$$$$
