71587038
  -OEChem-11232109083D

 40 41  0     1  0  0  0  0  0999 V2000
    4.2074   -0.9003    0.7644 O   0  0  0  0  0  0  0  0  0  0  0  0
    0.4088    0.4457   -0.3191 C   0  0  2  0  0  0  0  0  0  0  0  0
    0.7350   -1.0244    0.0972 C   0  0  1  0  0  0  0  0  0  0  0  0
    1.4599    1.3714    0.3951 C   0  0  1  0  0  0  0  0  0  0  0  0
   -1.0286    0.7778    0.1785 C   0  0  0  0  0  0  0  0  0  0  0  0
   -0.3103   -2.0330   -0.3967 C   0  0  0  0  0  0  0  0  0  0  0  0
   -2.0966   -0.2305   -0.2858 C   0  0  1  0  0  0  0  0  0  0  0  0
    2.1443   -1.4513   -0.3163 C   0  0  0  0  0  0  0  0  0  0  0  0
   -1.7088   -1.6641    0.0915 C   0  0  0  0  0  0  0  0  0  0  0  0
    2.9095    0.9833    0.0574 C   0  0  0  0  0  0  0  0  0  0  0  0
    0.4596    0.6426   -1.8549 C   0  0  0  0  0  0  0  0  0  0  0  0
    3.1630   -0.4938    0.2551 C   0  0  0  0  0  0  0  0  0  0  0  0
    1.2729    2.8710    0.1331 C   0  0  0  0  0  0  0  0  0  0  0  0
   -3.4385    0.1197    0.2891 C   0  0  0  0  0  0  0  0  0  0  0  0
   -4.5176    0.4452   -0.7005 C   0  0  0  0  0  0  0  0  0  0  0  0
   -3.6598    0.1407    1.6119 C   0  0  0  0  0  0  0  0  0  0  0  0
    0.7055   -1.0618    1.1978 H   0  0  0  0  0  0  0  0  0  0  0  0
    1.3362    1.2262    1.4787 H   0  0  0  0  0  0  0  0  0  0  0  0
   -1.3224    1.7783   -0.1645 H   0  0  0  0  0  0  0  0  0  0  0  0
   -1.0066    0.8257    1.2754 H   0  0  0  0  0  0  0  0  0  0  0  0
   -0.0617   -3.0351   -0.0257 H   0  0  0  0  0  0  0  0  0  0  0  0
   -0.3022   -2.1009   -1.4903 H   0  0  0  0  0  0  0  0  0  0  0  0
   -2.1650   -0.1801   -1.3798 H   0  0  0  0  0  0  0  0  0  0  0  0
    2.2657   -1.4868   -1.4034 H   0  0  0  0  0  0  0  0  0  0  0  0
    2.3595   -2.4526    0.0748 H   0  0  0  0  0  0  0  0  0  0  0  0
   -2.4332   -2.3721   -0.3310 H   0  0  0  0  0  0  0  0  0  0  0  0
   -1.7354   -1.8067    1.1794 H   0  0  0  0  0  0  0  0  0  0  0  0
    3.5965    1.5348    0.7106 H   0  0  0  0  0  0  0  0  0  0  0  0
    3.1690    1.2366   -0.9759 H   0  0  0  0  0  0  0  0  0  0  0  0
    1.4681    0.5208   -2.2592 H   0  0  0  0  0  0  0  0  0  0  0  0
    0.1163    1.6442   -2.1358 H   0  0  0  0  0  0  0  0  0  0  0  0
   -0.1781   -0.0669   -2.3891 H   0  0  0  0  0  0  0  0  0  0  0  0
    0.2823    3.2152    0.4426 H   0  0  0  0  0  0  0  0  0  0  0  0
    2.0054    3.4511    0.7058 H   0  0  0  0  0  0  0  0  0  0  0  0
    1.4126    3.1215   -0.9228 H   0  0  0  0  0  0  0  0  0  0  0  0
   -4.2262    1.3060   -1.3113 H   0  0  0  0  0  0  0  0  0  0  0  0
   -4.6966   -0.4084   -1.3624 H   0  0  0  0  0  0  0  0  0  0  0  0
   -5.4658    0.6908   -0.2107 H   0  0  0  0  0  0  0  0  0  0  0  0
   -4.6362    0.3963    2.0110 H   0  0  0  0  0  0  0  0  0  0  0  0
   -2.8853   -0.0940    2.3337 H   0  0  0  0  0  0  0  0  0  0  0  0
  1 12  2  0  0  0  0
  2  3  1  0  0  0  0
  2  4  1  0  0  0  0
  2  5  1  0  0  0  0
  2 11  1  0  0  0  0
  3  6  1  0  0  0  0
  3  8  1  0  0  0  0
  3 17  1  0  0  0  0
  4 10  1  0  0  0  0
  4 13  1  0  0  0  0
  4 18  1  0  0  0  0
  5  7  1  0  0  0  0
  5 19  1  0  0  0  0
  5 20  1  0  0  0  0
  6  9  1  0  0  0  0
  6 21  1  0  0  0  0
  6 22  1  0  0  0  0
  7  9  1  0  0  0  0
  7 14  1  0  0  0  0
  7 23  1  0  0  0  0
  8 12  1  0  0  0  0
  8 24  1  0  0  0  0
  8 25  1  0  0  0  0
  9 26  1  0  0  0  0
  9 27  1  0  0  0  0
 10 12  1  0  0  0  0
 10 28  1  0  0  0  0
 10 29  1  0  0  0  0
 11 30  1  0  0  0  0
 11 31  1  0  0  0  0
 11 32  1  0  0  0  0
 13 33  1  0  0  0  0
 13 34  1  0  0  0  0
 13 35  1  0  0  0  0
 14 15  1  0  0  0  0
 14 16  2  0  0  0  0
 15 36  1  0  0  0  0
 15 37  1  0  0  0  0
 15 38  1  0  0  0  0
 16 39  1  0  0  0  0
 16 40  1  0  0  0  0
M  END
> <PUBCHEM_COMPOUND_CID>
71587038

> <PUBCHEM_CONFORMER_RMSD>
0.6

> <PUBCHEM_CONFORMER_DIVERSEORDER>
1
3
2

> <PUBCHEM_MMFF94_PARTIAL_CHARGES>
10
1 -0.57
10 0.06
12 0.45
14 -0.28
15 0.14
16 -0.3
39 0.15
40 0.15
7 0.14
8 0.06

> <PUBCHEM_EFFECTIVE_ROTOR_COUNT>
2.4

> <PUBCHEM_PHARMACOPHORE_FEATURES>
3
1 1 acceptor
6 2 3 4 8 10 12 rings
6 2 3 5 6 7 9 rings

> <PUBCHEM_HEAVY_ATOM_COUNT>
16

> <PUBCHEM_ATOM_DEF_STEREO_COUNT>
4

> <PUBCHEM_ATOM_UDEF_STEREO_COUNT>
0

> <PUBCHEM_BOND_DEF_STEREO_COUNT>
0

> <PUBCHEM_BOND_UDEF_STEREO_COUNT>
0

> <PUBCHEM_ISOTOPIC_ATOM_COUNT>
0

> <PUBCHEM_COMPONENT_COUNT>
1

> <PUBCHEM_CACTVS_TAUTO_COUNT>
3

> <PUBCHEM_CONFORMER_ID>
044454DE00000001

> <PUBCHEM_MMFF94_ENERGY>
41.4406

> <PUBCHEM_FEATURE_SELFOVERLAP>
15.238

> <PUBCHEM_SHAPE_FINGERPRINT>
10130415 120 18408319986662735146
10219947 1 18410576167042336263
10967382 1 18412262817990231390
10980938 120 18411982468389813362
11086676 242 18260261932836367002
11132069 177 18412536609439365058
11471102 20 18411414012040392357
12011746 2 18412544280240218070
12251169 10 18411981368725321834
12382932 28 18413110584257343666
12403260 363 18412818101938888213
124424 183 18040432170674504939
12491281 212 18270126840906803979
12507560 14 18343297050575782564
12716301 132 17607492818338648068
13132413 78 18271811155329407337
13134695 92 18335133168107575805
13140716 1 18340208612597136835
13380535 76 18342738520328695511
13922767 16 18410008823590604749
14144814 61 18342462547173000873
14251717 144 18341609296153757775
14993402 34 18412829075073738974
15309172 13 18412267224874817907
15375462 189 18113891637911984330
15375462 478 17775280539020725936
15501101 241 18260266365021154820
15653759 3 17313109657138557235
15775835 57 18337962301719935549
16945 1 18412265029824535926
17804303 29 18334862726891188406
18175812 5 17967533480300831255
18186145 218 18201168714713895693
18511873 20 18343018912778027026
192875 21 18060414725157845081
200 152 18059846277988747407
20233049 118 18260828155122468012
20511035 2 18117852211417005814
20645477 70 18408598145777208087
20671657 1 18267872867950871756
21501502 16 18196370540127304366
21637258 2 15719385140415530514
22094290 62 18340770445822150608
22892500 29 18411971481900790085
23184049 59 18410011030913625067
2334 1 18052257593971479999
23402539 116 17632568336841293301
23463225 33 18409446998966016290
23493267 7 16299214723268614301
23559900 14 18056778722421416780
2748010 2 17980482260942064638
296302 2 18410295843196008284
5104073 3 18339359768145696835
568465 68 17896623754706140291
57426455 70 18409169874654052634
69090 78 18342168982042966327
7364860 26 18268993249030298424
74978 22 18340770467397064383

> <PUBCHEM_SHAPE_MULTIPOLES>
323.4
6.62
2.1
1.1
3.33
0.54
0.16
0.01
-1.43
-1.18
0
0.47
0.14
-0.08

> <PUBCHEM_SHAPE_SELFOVERLAP>
660.149

> <PUBCHEM_SHAPE_VOLUME>
186.5

> <PUBCHEM_COORDINATE_TYPE>
2
5
10

$$$$
