71587703
  -OEChem-11232109023D

 21 21  0     0  0  0  0  0  0999 V2000
    0.0493   -1.6425   -1.2623 S   0  0  0  0  0  0  0  0  0  0  0  0
    1.5132   -2.0892    0.1158 S   0  0  0  0  0  0  0  0  0  0  0  0
    2.1980    0.7769    0.7685 S   0  0  0  0  0  0  0  0  0  0  0  0
   -2.2928    1.1103    0.4142 O   0  0  0  0  0  0  0  0  0  0  0  0
   -1.4290    0.6774   -0.5414 C   0  0  0  0  0  0  0  0  0  0  0  0
   -1.0585   -0.6258   -0.3034 C   0  0  0  0  0  0  0  0  0  0  0  0
   -1.7386   -1.0190    0.8739 C   0  0  0  0  0  0  0  0  0  0  0  0
   -1.0869    1.6554   -1.5865 C   0  0  0  0  0  0  0  0  0  0  0  0
   -2.4760    0.0721    1.2716 C   0  0  0  0  0  0  0  0  0  0  0  0
    2.7041   -0.7322   -0.1020 C   0  0  0  0  0  0  0  0  0  0  0  0
    3.6172    1.8168    0.3516 C   0  0  0  0  0  0  0  0  0  0  0  0
   -1.7047   -1.9755    1.3767 H   0  0  0  0  0  0  0  0  0  0  0  0
   -1.6720    1.4649   -2.4914 H   0  0  0  0  0  0  0  0  0  0  0  0
   -1.2939    2.6784   -1.2567 H   0  0  0  0  0  0  0  0  0  0  0  0
   -0.0254    1.5990   -1.8463 H   0  0  0  0  0  0  0  0  0  0  0  0
   -3.1461    0.2606    2.0974 H   0  0  0  0  0  0  0  0  0  0  0  0
    3.6564   -1.0672    0.3192 H   0  0  0  0  0  0  0  0  0  0  0  0
    2.8561   -0.5329   -1.1671 H   0  0  0  0  0  0  0  0  0  0  0  0
    3.4865    2.8030    0.8048 H   0  0  0  0  0  0  0  0  0  0  0  0
    3.6934    1.9397   -0.7319 H   0  0  0  0  0  0  0  0  0  0  0  0
    4.5395    1.3759    0.7386 H   0  0  0  0  0  0  0  0  0  0  0  0
  1  2  1  0  0  0  0
  1  6  1  0  0  0  0
  2 10  1  0  0  0  0
  3 10  1  0  0  0  0
  3 11  1  0  0  0  0
  4  5  1  0  0  0  0
  4  9  1  0  0  0  0
  5  6  2  0  0  0  0
  5  8  1  0  0  0  0
  6  7  1  0  0  0  0
  7  9  2  0  0  0  0
  7 12  1  0  0  0  0
  8 13  1  0  0  0  0
  8 14  1  0  0  0  0
  8 15  1  0  0  0  0
  9 16  1  0  0  0  0
 10 17  1  0  0  0  0
 10 18  1  0  0  0  0
 11 19  1  0  0  0  0
 11 20  1  0  0  0  0
 11 21  1  0  0  0  0
M  END
> <PUBCHEM_COMPOUND_CID>
71587703

> <PUBCHEM_CONFORMER_RMSD>
0.6

> <PUBCHEM_CONFORMER_DIVERSEORDER>
1
83
119
123
50
173
87
111
127
148
146
160
108
137
161
81
129
68
41
71
112
147
120
166
66
140
178
100
142
144
28
131
151
126
159
92
179
32
104
156
70
48
97
168
163
128
175
130
114
2
103
109
101
177
99
116
42
169
76
21
74
105
152
26
63
82
176
98
3
44
132
135
122
180
89
57
85
54
40
124
75
102
154
69
94
150
172
52
78
80
118
125
64
49
72
5
117
171
53
30
17
19
162
29
31
157
96
13
138
139
155
153
45
164
88
56
55
110
51
79
35
36
136
37
10
143
77
34
145
47
61
12
65
58
39
84
174
23
91
90
134
133
16
93
59
141
25
170
165
95
86
149
18
9
20
11
24
106
14
167
67
73
27
115
15
60
7
43
121
158
8
22
4
113
6
33
62
38
107
46

> <PUBCHEM_MMFF94_PARTIAL_CHARGES>
13
1 -0.05
10 0.46
11 0.23
12 0.15
16 0.15
2 -0.23
3 -0.46
4 -0.28
5 -0.04
6 0.05
7 -0.15
8 0.18
9 -0.01

> <PUBCHEM_EFFECTIVE_ROTOR_COUNT>
4

> <PUBCHEM_PHARMACOPHORE_FEATURES>
4
1 11 hydrophobe
1 4 acceptor
4 1 2 3 10 hydrophobe
5 4 5 6 7 9 rings

> <PUBCHEM_HEAVY_ATOM_COUNT>
11

> <PUBCHEM_ATOM_DEF_STEREO_COUNT>
0

> <PUBCHEM_ATOM_UDEF_STEREO_COUNT>
0

> <PUBCHEM_BOND_DEF_STEREO_COUNT>
0

> <PUBCHEM_BOND_UDEF_STEREO_COUNT>
0

> <PUBCHEM_ISOTOPIC_ATOM_COUNT>
0

> <PUBCHEM_COMPONENT_COUNT>
1

> <PUBCHEM_CACTVS_TAUTO_COUNT>
1

> <PUBCHEM_CONFORMER_ID>
0444577700000001

> <PUBCHEM_MMFF94_ENERGY>
0.7137

> <PUBCHEM_FEATURE_SELFOVERLAP>
20.297

> <PUBCHEM_SHAPE_FINGERPRINT>
10857977 72 17749970893941011435
13618510 140 18343299288644212016
15775835 57 18272653497500619800
17834069 17 18343301470207900054
21524375 3 18270954769495604546
23532345 42 18041573536837890275
25610 171 17531534165693042069
31174 14 18194131719836818947
430814 3 17917435353872931298

> <PUBCHEM_SHAPE_MULTIPOLES>
232.05
4.71
2.26
1.35
3.25
0.3
0.25
-2.21
-1.46
1.13
0.46
-0.72
-0.16
0.54

> <PUBCHEM_SHAPE_SELFOVERLAP>
419.677

> <PUBCHEM_SHAPE_VOLUME>
153.1

> <PUBCHEM_COORDINATE_TYPE>
2
5
10

$$$$
