71587170
  -OEChem-11232109163D

 28 28  0     1  0  0  0  0  0999 V2000
    0.4240   -0.4773   -0.5405 O   0  0  0  0  0  0  0  0  0  0  0  0
   -3.5199   -1.0467   -0.6904 O   0  0  0  0  0  0  0  0  0  0  0  0
   -0.4982    0.6035   -0.3178 C   0  0  2  0  0  0  0  0  0  0  0  0
    1.7710    0.0113   -0.3685 C   0  0  2  0  0  0  0  0  0  0  0  0
    0.2809    1.6846    0.4093 C   0  0  0  0  0  0  0  0  0  0  0  0
    1.6524    1.5279   -0.2060 C   0  0  0  0  0  0  0  0  0  0  0  0
   -1.7009    0.1006    0.4564 C   0  0  1  0  0  0  0  0  0  0  0  0
    2.5905   -0.3742   -1.5955 C   0  0  0  0  0  0  0  0  0  0  0  0
    2.3427   -0.6455    0.8542 C   0  0  0  0  0  0  0  0  0  0  0  0
   -2.6924    1.2271    0.7365 C   0  0  0  0  0  0  0  0  0  0  0  0
   -2.3536   -1.0367   -0.3105 C   0  0  0  0  0  0  0  0  0  0  0  0
    1.7034   -1.5746    1.5728 C   0  0  0  0  0  0  0  0  0  0  0  0
   -0.8015    0.9617   -1.3105 H   0  0  0  0  0  0  0  0  0  0  0  0
    0.3319    1.4871    1.4867 H   0  0  0  0  0  0  0  0  0  0  0  0
   -0.1366    2.6849    0.2632 H   0  0  0  0  0  0  0  0  0  0  0  0
    1.6640    2.0268   -1.1835 H   0  0  0  0  0  0  0  0  0  0  0  0
    2.4453    1.9744    0.4026 H   0  0  0  0  0  0  0  0  0  0  0  0
   -1.3815   -0.3394    1.4096 H   0  0  0  0  0  0  0  0  0  0  0  0
    2.1339    0.0246   -2.5089 H   0  0  0  0  0  0  0  0  0  0  0  0
    2.6241   -1.4629   -1.7228 H   0  0  0  0  0  0  0  0  0  0  0  0
    3.6184   -0.0011   -1.5315 H   0  0  0  0  0  0  0  0  0  0  0  0
    3.3395   -0.3443    1.1678 H   0  0  0  0  0  0  0  0  0  0  0  0
   -2.2595    1.9909    1.3898 H   0  0  0  0  0  0  0  0  0  0  0  0
   -3.5882    0.8406    1.2354 H   0  0  0  0  0  0  0  0  0  0  0  0
   -3.0173    1.7116   -0.1910 H   0  0  0  0  0  0  0  0  0  0  0  0
   -1.7106   -1.9153   -0.4937 H   0  0  0  0  0  0  0  0  0  0  0  0
    2.1863   -2.0025    2.4459 H   0  0  0  0  0  0  0  0  0  0  0  0
    0.7136   -1.9434    1.3339 H   0  0  0  0  0  0  0  0  0  0  0  0
  1  3  1  0  0  0  0
  1  4  1  0  0  0  0
  2 11  2  0  0  0  0
  3  5  1  0  0  0  0
  3  7  1  0  0  0  0
  3 13  1  0  0  0  0
  4  6  1  0  0  0  0
  4  8  1  0  0  0  0
  4  9  1  0  0  0  0
  5  6  1  0  0  0  0
  5 14  1  0  0  0  0
  5 15  1  0  0  0  0
  6 16  1  0  0  0  0
  6 17  1  0  0  0  0
  7 10  1  0  0  0  0
  7 11  1  0  0  0  0
  7 18  1  0  0  0  0
  8 19  1  0  0  0  0
  8 20  1  0  0  0  0
  8 21  1  0  0  0  0
  9 12  2  0  0  0  0
  9 22  1  0  0  0  0
 10 23  1  0  0  0  0
 10 24  1  0  0  0  0
 10 25  1  0  0  0  0
 11 26  1  0  0  0  0
 12 27  1  0  0  0  0
 12 28  1  0  0  0  0
M  END
> <PUBCHEM_COMPOUND_CID>
71587170

> <PUBCHEM_CONFORMER_RMSD>
0.6

> <PUBCHEM_CONFORMER_DIVERSEORDER>
1
10
13
2
11
14
8
3
4
6
9
12
7
5

> <PUBCHEM_MMFF94_PARTIAL_CHARGES>
12
1 -0.56
11 0.45
12 -0.3
2 -0.57
22 0.15
26 0.06
27 0.15
28 0.15
3 0.28
4 0.42
7 0.06
9 -0.29

> <PUBCHEM_EFFECTIVE_ROTOR_COUNT>
4

> <PUBCHEM_PHARMACOPHORE_FEATURES>
5
1 1 acceptor
1 10 hydrophobe
1 12 hydrophobe
1 2 acceptor
5 1 3 4 5 6 rings

> <PUBCHEM_HEAVY_ATOM_COUNT>
12

> <PUBCHEM_ATOM_DEF_STEREO_COUNT>
3

> <PUBCHEM_ATOM_UDEF_STEREO_COUNT>
0

> <PUBCHEM_BOND_DEF_STEREO_COUNT>
0

> <PUBCHEM_BOND_UDEF_STEREO_COUNT>
0

> <PUBCHEM_ISOTOPIC_ATOM_COUNT>
0

> <PUBCHEM_COMPONENT_COUNT>
1

> <PUBCHEM_CACTVS_TAUTO_COUNT>
2

> <PUBCHEM_CONFORMER_ID>
0444556200000001

> <PUBCHEM_MMFF94_ENERGY>
23.9021

> <PUBCHEM_FEATURE_SELFOVERLAP>
25.372

> <PUBCHEM_SHAPE_FINGERPRINT>
10857977 72 17704345576514279025
12423570 1 17265304953142156780
12932764 1 18261117348419289989
15310529 11 17241625943392670301
15375462 189 18188214203911056778
15757776 16 18263636419478278150
15852999 172 16951956465349347371
16945 1 17749115499553609588
17990270 104 18202290224742181789
20645477 70 18197774612830178711
20653091 64 18411133675377942144
20711985 344 18196384627583319893
20715346 28 16988840553586852637
21524375 3 17908702083469867328
232386 152 18336823091910026194
23552423 10 18334580195590029653
3248919 1 17846213341453853157
5084963 1 17275116036756014183
53748568 43 18188788157607665207
8030462 33 18113623391101930149

> <PUBCHEM_SHAPE_MULTIPOLES>
235.22
4.62
1.66
1.26
2.77
0.2
0.03
-1.2
0.61
-0.05
-0.42
-0.7
-0.38
-0.89

> <PUBCHEM_SHAPE_SELFOVERLAP>
468.405

> <PUBCHEM_SHAPE_VOLUME>
141.4

> <PUBCHEM_COORDINATE_TYPE>
2
5
10

$$$$
