71587756
  -OEChem-11232109123D

 28 28  0     1  0  0  0  0  0999 V2000
    0.4271    0.4537   -0.2751 O   0  0  0  0  0  0  0  0  0  0  0  0
   -3.4053    1.5137    0.0341 O   0  0  0  0  0  0  0  0  0  0  0  0
   -0.5300   -0.3822    0.3964 C   0  0  2  0  0  0  0  0  0  0  0  0
    1.7206   -0.1854   -0.2311 C   0  0  1  0  0  0  0  0  0  0  0  0
    0.0830   -1.7692    0.4433 C   0  0  0  0  0  0  0  0  0  0  0  0
    1.5471   -1.4435    0.6235 C   0  0  0  0  0  0  0  0  0  0  0  0
   -1.8567   -0.3317   -0.3357 C   0  0  1  0  0  0  0  0  0  0  0  0
    2.1182   -0.5171   -1.6704 C   0  0  0  0  0  0  0  0  0  0  0  0
    2.7095    0.7665    0.3659 C   0  0  0  0  0  0  0  0  0  0  0  0
   -2.8938   -1.2325    0.3305 C   0  0  0  0  0  0  0  0  0  0  0  0
   -2.3363    1.1077   -0.4102 C   0  0  0  0  0  0  0  0  0  0  0  0
    2.4167    2.0199    0.7288 C   0  0  0  0  0  0  0  0  0  0  0  0
   -0.6354    0.0184    1.4134 H   0  0  0  0  0  0  0  0  0  0  0  0
   -0.0636   -2.3037   -0.5027 H   0  0  0  0  0  0  0  0  0  0  0  0
   -0.3154   -2.3876    1.2526 H   0  0  0  0  0  0  0  0  0  0  0  0
    1.7379   -1.2325    1.6841 H   0  0  0  0  0  0  0  0  0  0  0  0
    2.2053   -2.2671    0.3291 H   0  0  0  0  0  0  0  0  0  0  0  0
   -1.7240   -0.6462   -1.3790 H   0  0  0  0  0  0  0  0  0  0  0  0
    1.3701   -1.1579   -2.1505 H   0  0  0  0  0  0  0  0  0  0  0  0
    3.0876   -1.0252   -1.7173 H   0  0  0  0  0  0  0  0  0  0  0  0
    2.1759    0.3920   -2.2813 H   0  0  0  0  0  0  0  0  0  0  0  0
    3.7276    0.4114    0.5072 H   0  0  0  0  0  0  0  0  0  0  0  0
   -2.6044   -2.2865    0.2775 H   0  0  0  0  0  0  0  0  0  0  0  0
   -3.8667   -1.1360   -0.1644 H   0  0  0  0  0  0  0  0  0  0  0  0
   -3.0343   -0.9666    1.3841 H   0  0  0  0  0  0  0  0  0  0  0  0
   -1.6620    1.8054   -0.9367 H   0  0  0  0  0  0  0  0  0  0  0  0
    3.1904    2.6511    1.1543 H   0  0  0  0  0  0  0  0  0  0  0  0
    1.4313    2.4572    0.6211 H   0  0  0  0  0  0  0  0  0  0  0  0
  1  3  1  0  0  0  0
  1  4  1  0  0  0  0
  2 11  2  0  0  0  0
  3  5  1  0  0  0  0
  3  7  1  0  0  0  0
  3 13  1  0  0  0  0
  4  6  1  0  0  0  0
  4  8  1  0  0  0  0
  4  9  1  0  0  0  0
  5  6  1  0  0  0  0
  5 14  1  0  0  0  0
  5 15  1  0  0  0  0
  6 16  1  0  0  0  0
  6 17  1  0  0  0  0
  7 10  1  0  0  0  0
  7 11  1  0  0  0  0
  7 18  1  0  0  0  0
  8 19  1  0  0  0  0
  8 20  1  0  0  0  0
  8 21  1  0  0  0  0
  9 12  2  0  0  0  0
  9 22  1  0  0  0  0
 10 23  1  0  0  0  0
 10 24  1  0  0  0  0
 10 25  1  0  0  0  0
 11 26  1  0  0  0  0
 12 27  1  0  0  0  0
 12 28  1  0  0  0  0
M  END
> <PUBCHEM_COMPOUND_CID>
71587756

> <PUBCHEM_CONFORMER_RMSD>
0.6

> <PUBCHEM_CONFORMER_DIVERSEORDER>
1
16
12
15
7
11
6
17
10
14
4
13
8
5
3
9
2

> <PUBCHEM_MMFF94_PARTIAL_CHARGES>
12
1 -0.56
11 0.45
12 -0.3
2 -0.57
22 0.15
26 0.06
27 0.15
28 0.15
3 0.28
4 0.42
7 0.06
9 -0.29

> <PUBCHEM_EFFECTIVE_ROTOR_COUNT>
4

> <PUBCHEM_PHARMACOPHORE_FEATURES>
5
1 1 acceptor
1 10 hydrophobe
1 12 hydrophobe
1 2 acceptor
5 1 3 4 5 6 rings

> <PUBCHEM_HEAVY_ATOM_COUNT>
12

> <PUBCHEM_ATOM_DEF_STEREO_COUNT>
3

> <PUBCHEM_ATOM_UDEF_STEREO_COUNT>
0

> <PUBCHEM_BOND_DEF_STEREO_COUNT>
0

> <PUBCHEM_BOND_UDEF_STEREO_COUNT>
0

> <PUBCHEM_ISOTOPIC_ATOM_COUNT>
0

> <PUBCHEM_COMPONENT_COUNT>
1

> <PUBCHEM_CACTVS_TAUTO_COUNT>
2

> <PUBCHEM_CONFORMER_ID>
044457AC00000001

> <PUBCHEM_MMFF94_ENERGY>
23.9074

> <PUBCHEM_FEATURE_SELFOVERLAP>
25.372

> <PUBCHEM_SHAPE_FINGERPRINT>
10608611 8 18411978083107177233
12423570 1 17192649594140735334
12932764 1 18410022022025274299
13380535 21 18189631457662729435
13839132 238 18339080496692852116
14325111 11 18408600383270260537
14390081 3 18410289211908979953
15219456 202 18201442501604136076
15775835 57 18334016055698370389
16945 1 18265329504176614122
18186145 218 18201449064066186091
19973954 147 18413389838820416697
20653085 51 18201730522126823625
20671657 53 17058678195420824878
21028194 46 18334577970627970498
21040471 1 18186806910864263034
21524375 3 17841425144624929808
21947302 44 18271802440998843856
22802520 49 18129395825125128837
230 275 18333730247226187220
23211744 41 18198622322914016698
23402539 116 18122608715951362103
2748010 2 18408042918169502295
305870 269 18260255339787429978
3248919 1 17203328884018856323
5084963 1 18263944244126971886
53812653 166 18408322164137385504
7364860 26 18267297638712266546
74978 22 18271529676236765475
8030462 33 18259985972450283047
81228 2 17827089698789230275

> <PUBCHEM_SHAPE_MULTIPOLES>
235.22
4.89
1.9
1.01
2.35
0.31
0.35
1.88
-0.03
-0.02
-0.42
-0.62
-0.13
0.6

> <PUBCHEM_SHAPE_SELFOVERLAP>
467.997

> <PUBCHEM_SHAPE_VOLUME>
141.3

> <PUBCHEM_COORDINATE_TYPE>
2
5
10

$$$$
