71587572
  -OEChem-11232109133D

 51 51  0     1  0  0  0  0  0999 V2000
    2.8357    0.7373    0.5789 O   0  0  0  0  0  0  0  0  0  0  0  0
    4.0563   -0.9022   -0.5799 O   0  0  0  0  0  0  0  0  0  0  0  0
    0.2052    1.6914   -0.0728 O   0  0  0  0  0  0  0  0  0  0  0  0
   -5.0735   -0.2613   -0.4834 O   0  0  0  0  0  0  0  0  0  0  0  0
   -0.7168    3.1807   -1.5736 O   0  0  0  0  0  0  0  0  0  0  0  0
    2.0376    0.1986   -0.4787 C   0  0  2  0  0  0  0  0  0  0  0  0
    4.0104   -0.0901    0.6050 C   0  0  0  0  0  0  0  0  0  0  0  0
   -4.1827    0.0868    0.5780 C   0  0  1  0  0  0  0  0  0  0  0  0
    3.0675   -0.3382   -1.4428 C   0  0  0  0  0  0  0  0  0  0  0  0
   -3.4011   -1.1697    0.9852 C   0  0  0  0  0  0  0  0  0  0  0  0
   -3.3322    1.2799    0.1200 C   0  0  0  0  0  0  0  0  0  0  0  0
   -2.4990   -1.7106   -0.1253 C   0  0  0  0  0  0  0  0  0  0  0  0
   -2.3993    1.8389    1.2042 C   0  0  0  0  0  0  0  0  0  0  0  0
    1.1429    1.2682   -1.0677 C   0  0  0  0  0  0  0  0  0  0  0  0
   -1.7022   -2.9508    0.2921 C   0  0  0  0  0  0  0  0  0  0  0  0
    3.9551   -1.0060    1.8211 C   0  0  0  0  0  0  0  0  0  0  0  0
    5.2380    0.8112    0.6457 C   0  0  0  0  0  0  0  0  0  0  0  0
   -1.5664    3.0189    0.6998 C   0  0  0  0  0  0  0  0  0  0  0  0
   -0.8586   -3.5381   -0.8401 C   0  0  0  0  0  0  0  0  0  0  0  0
   -0.6724    2.6613   -0.4670 C   0  0  0  0  0  0  0  0  0  0  0  0
   -0.1445   -4.8064   -0.3985 C   0  0  0  0  0  0  0  0  0  0  0  0
    1.4392   -0.6119   -0.0440 H   0  0  0  0  0  0  0  0  0  0  0  0
   -4.8045    0.3931    1.4278 H   0  0  0  0  0  0  0  0  0  0  0  0
    2.6702   -1.1002   -2.1184 H   0  0  0  0  0  0  0  0  0  0  0  0
    3.5431    0.4540   -2.0319 H   0  0  0  0  0  0  0  0  0  0  0  0
   -4.1183   -1.9554    1.2555 H   0  0  0  0  0  0  0  0  0  0  0  0
   -2.8032   -0.9640    1.8800 H   0  0  0  0  0  0  0  0  0  0  0  0
   -4.0081    2.0823   -0.2059 H   0  0  0  0  0  0  0  0  0  0  0  0
   -2.7714    1.0098   -0.7819 H   0  0  0  0  0  0  0  0  0  0  0  0
   -1.7818   -0.9428   -0.4359 H   0  0  0  0  0  0  0  0  0  0  0  0
   -3.1063   -1.9553   -1.0050 H   0  0  0  0  0  0  0  0  0  0  0  0
   -1.7283    1.0501    1.5609 H   0  0  0  0  0  0  0  0  0  0  0  0
   -2.9961    2.1656    2.0638 H   0  0  0  0  0  0  0  0  0  0  0  0
    0.5989    0.8717   -1.9325 H   0  0  0  0  0  0  0  0  0  0  0  0
    1.7392    2.1367   -1.3722 H   0  0  0  0  0  0  0  0  0  0  0  0
   -1.0504   -2.6933    1.1362 H   0  0  0  0  0  0  0  0  0  0  0  0
   -2.4008   -3.7159    0.6533 H   0  0  0  0  0  0  0  0  0  0  0  0
    3.0706   -1.6518    1.7762 H   0  0  0  0  0  0  0  0  0  0  0  0
    3.8879   -0.4300    2.7499 H   0  0  0  0  0  0  0  0  0  0  0  0
    4.8310   -1.6616    1.8656 H   0  0  0  0  0  0  0  0  0  0  0  0
    5.2618    1.4682   -0.2313 H   0  0  0  0  0  0  0  0  0  0  0  0
    6.1626    0.2247    0.6356 H   0  0  0  0  0  0  0  0  0  0  0  0
    5.2291    1.4556    1.5310 H   0  0  0  0  0  0  0  0  0  0  0  0
   -0.9375    3.4178    1.5037 H   0  0  0  0  0  0  0  0  0  0  0  0
   -2.2289    3.8320    0.3806 H   0  0  0  0  0  0  0  0  0  0  0  0
   -1.4984   -3.7673   -1.7001 H   0  0  0  0  0  0  0  0  0  0  0  0
   -0.1192   -2.8001   -1.1722 H   0  0  0  0  0  0  0  0  0  0  0  0
   -5.6173    0.5204   -0.6802 H   0  0  0  0  0  0  0  0  0  0  0  0
    0.5253   -4.6058    0.4438 H   0  0  0  0  0  0  0  0  0  0  0  0
   -0.8616   -5.5750   -0.0928 H   0  0  0  0  0  0  0  0  0  0  0  0
    0.4550   -5.2091   -1.2209 H   0  0  0  0  0  0  0  0  0  0  0  0
  1  6  1  0  0  0  0
  1  7  1  0  0  0  0
  2  7  1  0  0  0  0
  2  9  1  0  0  0  0
  3 14  1  0  0  0  0
  3 20  1  0  0  0  0
  4  8  1  0  0  0  0
  4 48  1  0  0  0  0
  5 20  2  0  0  0  0
  6  9  1  0  0  0  0
  6 14  1  0  0  0  0
  6 22  1  0  0  0  0
  7 16  1  0  0  0  0
  7 17  1  0  0  0  0
  8 10  1  0  0  0  0
  8 11  1  0  0  0  0
  8 23  1  0  0  0  0
  9 24  1  0  0  0  0
  9 25  1  0  0  0  0
 10 12  1  0  0  0  0
 10 26  1  0  0  0  0
 10 27  1  0  0  0  0
 11 13  1  0  0  0  0
 11 28  1  0  0  0  0
 11 29  1  0  0  0  0
 12 15  1  0  0  0  0
 12 30  1  0  0  0  0
 12 31  1  0  0  0  0
 13 18  1  0  0  0  0
 13 32  1  0  0  0  0
 13 33  1  0  0  0  0
 14 34  1  0  0  0  0
 14 35  1  0  0  0  0
 15 19  1  0  0  0  0
 15 36  1  0  0  0  0
 15 37  1  0  0  0  0
 16 38  1  0  0  0  0
 16 39  1  0  0  0  0
 16 40  1  0  0  0  0
 17 41  1  0  0  0  0
 17 42  1  0  0  0  0
 17 43  1  0  0  0  0
 18 20  1  0  0  0  0
 18 44  1  0  0  0  0
 18 45  1  0  0  0  0
 19 21  1  0  0  0  0
 19 46  1  0  0  0  0
 19 47  1  0  0  0  0
 21 49  1  0  0  0  0
 21 50  1  0  0  0  0
 21 51  1  0  0  0  0
M  END
> <PUBCHEM_COMPOUND_CID>
71587572

> <PUBCHEM_CONFORMER_RMSD>
1.4

> <PUBCHEM_CONFORMER_DIVERSEORDER>
1
13
39
16
49
77
6
22
37
20
75
45
52
35
28
70
3
66
15
61
32
10
11
62
58
67
65
50
72
5
38
33
26
34
2
29
69
76
23
9
17
40
54
46
51
42
27
74
48
59
30
73
12
24
53
14
55
43
19
36
8
25
56
60
41
64
7
63
71
4
18
57
47
21
31
68
44

> <PUBCHEM_MMFF94_PARTIAL_CHARGES>
13
1 -0.56
14 0.28
18 0.06
2 -0.56
20 0.66
3 -0.43
4 -0.68
48 0.4
5 -0.57
6 0.28
7 0.56
8 0.28
9 0.28

> <PUBCHEM_EFFECTIVE_ROTOR_COUNT>
12

> <PUBCHEM_PHARMACOPHORE_FEATURES>
9
1 1 acceptor
1 2 acceptor
1 21 hydrophobe
1 4 acceptor
1 4 donor
1 5 acceptor
3 7 16 17 hydrophobe
4 10 12 15 19 hydrophobe
5 1 2 6 7 9 rings

> <PUBCHEM_HEAVY_ATOM_COUNT>
21

> <PUBCHEM_ATOM_DEF_STEREO_COUNT>
0

> <PUBCHEM_ATOM_UDEF_STEREO_COUNT>
2

> <PUBCHEM_BOND_DEF_STEREO_COUNT>
0

> <PUBCHEM_BOND_UDEF_STEREO_COUNT>
0

> <PUBCHEM_ISOTOPIC_ATOM_COUNT>
0

> <PUBCHEM_COMPONENT_COUNT>
1

> <PUBCHEM_CACTVS_TAUTO_COUNT>
1

> <PUBCHEM_CONFORMER_ID>
044456F400000001

> <PUBCHEM_MMFF94_ENERGY>
28.1017

> <PUBCHEM_FEATURE_SELFOVERLAP>
45.713

> <PUBCHEM_SHAPE_FINGERPRINT>
10366900 7 17775279478295835304
11014199 57 17762901374133362942
12553582 1 18196671789238895607
12633257 1 17989210364547808857
13004483 165 18188193369193872496
14251757 5 18193862524308823030
15403338 16 17168972397294989403
16728300 4 17968362469240685387
17093844 170 18340775849181367390
17977361 122 18409446981981338963
19026451 147 16975037589697752358
20511986 3 17749657563266057240
20600515 1 18271539683616391653
22113638 7 18337953510317682127
238918 7 18201158750269151702
3027735 51 18266451006706761517
339767 52 18113329825729108088
602551 16 18341055134025066920
9795274 37 17328020387420540539

> <PUBCHEM_SHAPE_MULTIPOLES>
402.82
9.23
4.86
1.33
5.07
4.6
-0.06
-0.2
-2.65
-3.3
1.07
0.79
-0.23
-0.31

> <PUBCHEM_SHAPE_SELFOVERLAP>
777.062

> <PUBCHEM_SHAPE_VOLUME>
246.3

> <PUBCHEM_COORDINATE_TYPE>
2
5
10

$$$$
