71587678
  -OEChem-11232109473D

 28 29  0     1  0  0  0  0  0999 V2000
   -0.6839   -0.1302    1.7646 S   0  0  0  0  0  0  0  0  0  0  0  0
    0.8064    1.2523    1.4765 S   0  0  0  0  0  0  0  0  0  0  0  0
   -3.7636   -0.3976   -0.7383 O   0  0  0  0  0  0  0  0  0  0  0  0
    3.4262   -0.3937   -1.0342 O   0  0  0  0  0  0  0  0  0  0  0  0
   -1.6942    0.1291    0.2837 C   0  0  1  0  0  0  0  0  0  0  0  0
   -2.6944   -0.9921    0.0244 C   0  0  2  0  0  0  0  0  0  0  0  0
   -2.6101    1.3275    0.4056 C   0  0  0  0  0  0  0  0  0  0  0  0
   -3.6407    1.0300   -0.6641 C   0  0  0  0  0  0  0  0  0  0  0  0
   -2.1199   -2.1630   -0.7544 C   0  0  0  0  0  0  0  0  0  0  0  0
    2.0177    0.3060    0.5718 C   0  0  0  0  0  0  0  0  0  0  0  0
    2.5171    0.5544   -0.6856 C   0  0  0  0  0  0  0  0  0  0  0  0
    2.6614   -0.8702    1.0250 C   0  0  0  0  0  0  0  0  0  0  0  0
    2.2698    1.6041   -1.6871 C   0  0  0  0  0  0  0  0  0  0  0  0
    3.5082   -1.2568    0.0120 C   0  0  0  0  0  0  0  0  0  0  0  0
   -1.0461    0.2451   -0.5946 H   0  0  0  0  0  0  0  0  0  0  0  0
   -3.1451   -1.3566    0.9560 H   0  0  0  0  0  0  0  0  0  0  0  0
   -2.1126    2.2882    0.2440 H   0  0  0  0  0  0  0  0  0  0  0  0
   -3.1048    1.3560    1.3848 H   0  0  0  0  0  0  0  0  0  0  0  0
   -4.6158    1.4730   -0.4430 H   0  0  0  0  0  0  0  0  0  0  0  0
   -3.3086    1.3874   -1.6446 H   0  0  0  0  0  0  0  0  0  0  0  0
   -1.7428   -1.8382   -1.7304 H   0  0  0  0  0  0  0  0  0  0  0  0
   -1.3072   -2.6496   -0.2076 H   0  0  0  0  0  0  0  0  0  0  0  0
   -2.9001   -2.9054   -0.9539 H   0  0  0  0  0  0  0  0  0  0  0  0
    2.5337   -1.3794    1.9700 H   0  0  0  0  0  0  0  0  0  0  0  0
    2.5504    2.5853   -1.2917 H   0  0  0  0  0  0  0  0  0  0  0  0
    2.8468    1.4318   -2.6012 H   0  0  0  0  0  0  0  0  0  0  0  0
    1.2101    1.6330   -1.9596 H   0  0  0  0  0  0  0  0  0  0  0  0
    4.1992   -2.0777   -0.1123 H   0  0  0  0  0  0  0  0  0  0  0  0
  1  2  1  0  0  0  0
  1  5  1  0  0  0  0
  2 10  1  0  0  0  0
  3  6  1  0  0  0  0
  3  8  1  0  0  0  0
  4 11  1  0  0  0  0
  4 14  1  0  0  0  0
  5  6  1  0  0  0  0
  5  7  1  0  0  0  0
  5 15  1  0  0  0  0
  6  9  1  0  0  0  0
  6 16  1  0  0  0  0
  7  8  1  0  0  0  0
  7 17  1  0  0  0  0
  7 18  1  0  0  0  0
  8 19  1  0  0  0  0
  8 20  1  0  0  0  0
  9 21  1  0  0  0  0
  9 22  1  0  0  0  0
  9 23  1  0  0  0  0
 10 11  2  0  0  0  0
 10 12  1  0  0  0  0
 11 13  1  0  0  0  0
 12 14  2  0  0  0  0
 12 24  1  0  0  0  0
 13 25  1  0  0  0  0
 13 26  1  0  0  0  0
 13 27  1  0  0  0  0
 14 28  1  0  0  0  0
M  END
> <PUBCHEM_COMPOUND_CID>
71587678

> <PUBCHEM_CONFORMER_RMSD>
0.6

> <PUBCHEM_CONFORMER_DIVERSEORDER>
11
281
128
278
138
232
134
276
94
141
156
193
66
112
202
143
77
298
148
271
92
147
67
93
71
256
257
201
104
227
74
265
266
215
204
142
20
95
65
53
151
85
190
293
113
205
289
97
186
294
140
139
73
102
101
226
108
273
210
270
170
154
259
149
44
264
120
189
212
107
56
125
288
68
252
27
166
239
135
161
171
182
196
283
116
70
158
81
245
198
64
188
197
206
117
28
37
168
224
241
86
145
235
228
222
106
47
69
155
237
136
191
225
221
179
234
90
84
152
187
233
137
174
177
164
192
203
275
80
244
219
61
31
258
153
180
52
119
240
194
217
99
132
5
242
269
62
33
267
49
157
76
16
15
82
150
123
96
169
133
79
19
146
216
13
50
25
30
285
121
105
243
103
254
83
200
173
295
211
238
279
291
175
284
78
255
290
63
231
129
282
263
100
178
75
207
42
7
229
181
110
167
118
10
184
165
60
230
18
287
277
98
159
72
218
185
89
122
296
109
58
131
29
32
45
162
199
34
144
23
236
253
213
160
124
22
280
208
38
8
247
209
14
163
249
214
195
54
21
126
12
40
35
246
57
111
2
261
251
43
1
262
26
292
88
272
248
183
172
127
36
48
91
59
39
9
6
286
297
87
41
46
130
220
114
55
268
115
223
260
24
51
176
4
250
17
274
3

> <PUBCHEM_MMFF94_PARTIAL_CHARGES>
14
1 -0.23
10 0.05
11 -0.04
12 -0.15
13 0.18
14 -0.01
2 -0.05
24 0.15
28 0.15
3 -0.56
4 -0.28
5 0.23
6 0.28
8 0.28

> <PUBCHEM_EFFECTIVE_ROTOR_COUNT>
4

> <PUBCHEM_PHARMACOPHORE_FEATURES>
4
1 3 acceptor
1 4 acceptor
5 3 5 6 7 8 rings
5 4 10 11 12 14 rings

> <PUBCHEM_HEAVY_ATOM_COUNT>
14

> <PUBCHEM_ATOM_DEF_STEREO_COUNT>
0

> <PUBCHEM_ATOM_UDEF_STEREO_COUNT>
2

> <PUBCHEM_BOND_DEF_STEREO_COUNT>
0

> <PUBCHEM_BOND_UDEF_STEREO_COUNT>
0

> <PUBCHEM_ISOTOPIC_ATOM_COUNT>
0

> <PUBCHEM_COMPONENT_COUNT>
1

> <PUBCHEM_CACTVS_TAUTO_COUNT>
1

> <PUBCHEM_CONFORMER_ID>
0444575E0000000B

> <PUBCHEM_MMFF94_ENERGY>
10.8823

> <PUBCHEM_FEATURE_SELFOVERLAP>
20.298

> <PUBCHEM_SHAPE_FINGERPRINT>
10498660 4 13334737955143186735
10751810 167 18409733945520169507
11471102 22 14476961147519183584
12363563 72 16845574209893852608
12707595 3 17274545424533470544
12932764 1 18341619273209669393
13296908 3 16702302342904688520
13693222 15 13614239265415877754
14115302 16 18342175548673142649
14250199 8 17676213497623189308
15375358 24 17060044948081698946
17834072 14 17560791105082729944
18186145 218 16805040718036249353
19766037 51 17058951011258188813
20201158 50 17275101725888131999
20279233 1 17489582372438890498
20645476 183 18187078447429296699
20645477 70 16271633577170589873
20671657 53 17632858624552890576
21119208 17 18261109638667871163
21486144 27 16371014034873583320
21524375 3 14562526305806993656
23402539 116 17603578609126516128
23402655 69 17894916187552466828
23557571 272 18267853055350878529
23559900 14 17988352686181947050
23598291 2 17899126118521935315
25 1 16298392323036219456
251288 83 11887665199852754752
3082319 5 18261114096833387904
549884 4 17240198837450451664
74978 22 18273214218139401785
81228 2 16342599239950048352
93112 12 18259987084551069183
9882013 296 10231744600454418105

> <PUBCHEM_SHAPE_MULTIPOLES>
284.07
7.1
1.77
1.58
1
0.37
0.17
0.9
-2.33
0.42
-0.36
-0.65
-0.43
-0.65

> <PUBCHEM_SHAPE_SELFOVERLAP>
557.5

> <PUBCHEM_SHAPE_VOLUME>
174.7

> <PUBCHEM_COORDINATE_TYPE>
2
5
10

$$$$
