7160826
  -OEChem-11232108583D

 47 47  0     1  0  0  0  0  0999 V2000
    2.7848    1.6072   -1.5409 O   0  0  0  0  0  0  0  0  0  0  0  0
    2.2603   -1.0608    0.5509 C   0  0  2  0  0  0  0  0  0  0  0  0
    1.7919   -1.7424   -0.7538 C   0  0  0  0  0  0  0  0  0  0  0  0
    0.5857   -2.6842   -0.6036 C   0  0  0  0  0  0  0  0  0  0  0  0
   -0.6645   -1.9455   -0.1224 C   0  0  0  0  0  0  0  0  0  0  0  0
   -1.9372   -2.7811   -0.2444 C   0  0  0  0  0  0  0  0  0  0  0  0
   -3.1927   -2.0796    0.3023 C   0  0  0  0  0  0  0  0  0  0  0  0
    3.2472    0.0819    0.2528 C   0  0  0  0  0  0  0  0  0  0  0  0
   -3.4993   -0.7285   -0.3589 C   0  0  0  0  0  0  0  0  0  0  0  0
   -2.9195    0.4629    0.4170 C   0  0  0  0  0  0  0  0  0  0  0  0
   -2.8077    1.7055   -0.4691 C   0  0  0  0  0  0  0  0  0  0  0  0
   -2.1965    2.9201    0.2392 C   0  0  0  0  0  0  0  0  0  0  0  0
   -0.8021    2.7205    0.8475 C   0  0  0  0  0  0  0  0  0  0  0  0
    0.2442    2.2077   -0.1444 C   0  0  0  0  0  0  0  0  0  0  0  0
    1.6237    2.0986    0.5027 C   0  0  0  0  0  0  0  0  0  0  0  0
    2.5668    1.2900   -0.3707 C   0  0  0  0  0  0  0  0  0  0  0  0
    2.9147   -2.0723    1.4958 C   0  0  0  0  0  0  0  0  0  0  0  0
    1.3943   -0.6375    1.0689 H   0  0  0  0  0  0  0  0  0  0  0  0
    2.6255   -2.3098   -1.1874 H   0  0  0  0  0  0  0  0  0  0  0  0
    1.5275   -0.9781   -1.4951 H   0  0  0  0  0  0  0  0  0  0  0  0
    0.8197   -3.5102    0.0763 H   0  0  0  0  0  0  0  0  0  0  0  0
    0.3847   -3.1336   -1.5841 H   0  0  0  0  0  0  0  0  0  0  0  0
   -0.7740   -1.0353   -0.7203 H   0  0  0  0  0  0  0  0  0  0  0  0
   -0.5364   -1.6505    0.9245 H   0  0  0  0  0  0  0  0  0  0  0  0
   -1.8059   -3.7276    0.2938 H   0  0  0  0  0  0  0  0  0  0  0  0
   -2.1024   -3.0389   -1.2980 H   0  0  0  0  0  0  0  0  0  0  0  0
   -3.1144   -1.9654    1.3900 H   0  0  0  0  0  0  0  0  0  0  0  0
   -4.0420   -2.7505    0.1215 H   0  0  0  0  0  0  0  0  0  0  0  0
    4.0431   -0.2583   -0.4204 H   0  0  0  0  0  0  0  0  0  0  0  0
    3.7371    0.4292    1.1705 H   0  0  0  0  0  0  0  0  0  0  0  0
   -4.5878   -0.5978   -0.4074 H   0  0  0  0  0  0  0  0  0  0  0  0
   -3.1433   -0.7345   -1.3960 H   0  0  0  0  0  0  0  0  0  0  0  0
   -1.9373    0.2109    0.8213 H   0  0  0  0  0  0  0  0  0  0  0  0
   -3.5612    0.6790    1.2799 H   0  0  0  0  0  0  0  0  0  0  0  0
   -3.8074    1.9804   -0.8279 H   0  0  0  0  0  0  0  0  0  0  0  0
   -2.2159    1.4717   -1.3620 H   0  0  0  0  0  0  0  0  0  0  0  0
   -2.8767    3.2446    1.0366 H   0  0  0  0  0  0  0  0  0  0  0  0
   -2.1500    3.7474   -0.4802 H   0  0  0  0  0  0  0  0  0  0  0  0
   -0.8687    2.0343    1.7001 H   0  0  0  0  0  0  0  0  0  0  0  0
   -0.4676    3.6822    1.2566 H   0  0  0  0  0  0  0  0  0  0  0  0
    0.2973    2.8780   -1.0109 H   0  0  0  0  0  0  0  0  0  0  0  0
   -0.0512    1.2254   -0.5267 H   0  0  0  0  0  0  0  0  0  0  0  0
    1.5490    1.6227    1.4862 H   0  0  0  0  0  0  0  0  0  0  0  0
    2.0656    3.0888    0.6586 H   0  0  0  0  0  0  0  0  0  0  0  0
    3.2543   -1.5813    2.4142 H   0  0  0  0  0  0  0  0  0  0  0  0
    2.2107   -2.8568    1.7888 H   0  0  0  0  0  0  0  0  0  0  0  0
    3.7824   -2.5492    1.0277 H   0  0  0  0  0  0  0  0  0  0  0  0
  1 16  2  0  0  0  0
  2  3  1  0  0  0  0
  2  8  1  0  0  0  0
  2 17  1  0  0  0  0
  2 18  1  0  0  0  0
  3  4  1  0  0  0  0
  3 19  1  0  0  0  0
  3 20  1  0  0  0  0
  4  5  1  0  0  0  0
  4 21  1  0  0  0  0
  4 22  1  0  0  0  0
  5  6  1  0  0  0  0
  5 23  1  0  0  0  0
  5 24  1  0  0  0  0
  6  7  1  0  0  0  0
  6 25  1  0  0  0  0
  6 26  1  0  0  0  0
  7  9  1  0  0  0  0
  7 27  1  0  0  0  0
  7 28  1  0  0  0  0
  8 16  1  0  0  0  0
  8 29  1  0  0  0  0
  8 30  1  0  0  0  0
  9 10  1  0  0  0  0
  9 31  1  0  0  0  0
  9 32  1  0  0  0  0
 10 11  1  0  0  0  0
 10 33  1  0  0  0  0
 10 34  1  0  0  0  0
 11 12  1  0  0  0  0
 11 35  1  0  0  0  0
 11 36  1  0  0  0  0
 12 13  1  0  0  0  0
 12 37  1  0  0  0  0
 12 38  1  0  0  0  0
 13 14  1  0  0  0  0
 13 39  1  0  0  0  0
 13 40  1  0  0  0  0
 14 15  1  0  0  0  0
 14 41  1  0  0  0  0
 14 42  1  0  0  0  0
 15 16  1  0  0  0  0
 15 43  1  0  0  0  0
 15 44  1  0  0  0  0
 17 45  1  0  0  0  0
 17 46  1  0  0  0  0
 17 47  1  0  0  0  0
M  END
> <PUBCHEM_COMPOUND_CID>
7160826

> <PUBCHEM_CONFORMER_RMSD>
0.6

> <PUBCHEM_CONFORMER_DIVERSEORDER>
13
72
86
40
80
84
10
7
25
28
65
74
64
32
5
6
41
81
48
63
59
79
60
73
38
23
15
91
26
93
58
22
78
30
53
88
44
35
4
29
33
55
90
42
67
8
68
77
31
51
46
61
69
54
36
89
27
39
82
18
37
76
20
34
21
17
43
85
52
87
70
57
3
16
75
56
11
92
50
14
83
9
71
24
12
62
2
49
45
19
66
47
1

> <PUBCHEM_MMFF94_PARTIAL_CHARGES>
4
1 -0.57
15 0.06
16 0.45
8 0.06

> <PUBCHEM_EFFECTIVE_ROTOR_COUNT>
2.8

> <PUBCHEM_PHARMACOPHORE_FEATURES>
1
1 1 acceptor

> <PUBCHEM_HEAVY_ATOM_COUNT>
17

> <PUBCHEM_ATOM_DEF_STEREO_COUNT>
1

> <PUBCHEM_ATOM_UDEF_STEREO_COUNT>
0

> <PUBCHEM_BOND_DEF_STEREO_COUNT>
0

> <PUBCHEM_BOND_UDEF_STEREO_COUNT>
0

> <PUBCHEM_ISOTOPIC_ATOM_COUNT>
0

> <PUBCHEM_COMPONENT_COUNT>
1

> <PUBCHEM_CACTVS_TAUTO_COUNT>
3

> <PUBCHEM_CONFORMER_ID>
006D43FA0000000D

> <PUBCHEM_MMFF94_ENERGY>
16.0715

> <PUBCHEM_FEATURE_SELFOVERLAP>
5.074

> <PUBCHEM_SHAPE_FINGERPRINT>
104564 63 18339651134548036428
10498660 4 18195246852265827911
10616163 171 18410579491458046533
10759866 29 18114186362735961972
10967382 1 17835801172444321647
12038231 1 17475234600621583383
12553582 1 18340210803394642745
13122387 1 17979073778130983075
13140716 1 18411416181289066411
14178342 30 17332800548666308016
1420 336 18265899064263805379
14251705 54 18411421704558934545
14251711 518 17980756361523517198
14251745 187 17980481483516301224
14251757 17 17841471126607786934
14765038 42 17767433496401040017
15442244 35 18336257938728351698
17093844 170 17258490050907482928
192875 21 18195501784471340727
19930381 70 16825864678298812491
20621476 13 16899321942206824231
20905425 154 18340210781534444207
21141583 151 17982468275495453780
21249577 28 18409449227737557768
22749437 52 18268422430601436061
3014063 31 18268427005137251815
3052486 1 18121227476429393934
58250162 1 18124585638021406472
5939293 188 17838337736921151485
7832392 63 17622446460244865286

> <PUBCHEM_SHAPE_MULTIPOLES>
343.98
6.06
4.43
1.03
0.84
0.24
-0.02
-0.63
-0.3
1.38
-0.1
-0.7
-0.03
-0.77

> <PUBCHEM_SHAPE_SELFOVERLAP>
647.723

> <PUBCHEM_SHAPE_VOLUME>
212.3

> <PUBCHEM_COORDINATE_TYPE>
2
5
10

$$$$
