72919
  -OEChem-11232109483D

 32 32  0     0  0  0  0  0  0999 V2000
   -2.7081   -1.2020    0.1416 N   0  0  0  0  0  0  0  0  0  0  0  0
    1.7219   -0.0566    0.6759 C   0  0  0  0  0  0  0  0  0  0  0  0
    2.8316    0.0202   -0.3749 C   0  0  0  0  0  0  0  0  0  0  0  0
    0.3368    0.0329    0.0276 C   0  0  0  0  0  0  0  0  0  0  0  0
    4.2158   -0.0353    0.2735 C   0  0  0  0  0  0  0  0  0  0  0  0
   -0.8064   -0.0092    1.0479 C   0  0  0  0  0  0  0  0  0  0  0  0
    5.3246    0.0754   -0.7727 C   0  0  0  0  0  0  0  0  0  0  0  0
   -2.1798    0.0018    0.4253 C   0  0  0  0  0  0  0  0  0  0  0  0
    6.7023   -0.0127   -0.1357 C   0  0  0  0  0  0  0  0  0  0  0  0
   -2.7924    1.2137    0.1909 C   0  0  0  0  0  0  0  0  0  0  0  0
   -4.0578    1.1886   -0.3849 C   0  0  0  0  0  0  0  0  0  0  0  0
   -3.9392   -1.1866   -0.4170 C   0  0  0  0  0  0  0  0  0  0  0  0
   -4.6492   -0.0303   -0.6976 C   0  0  0  0  0  0  0  0  0  0  0  0
    1.8057   -0.9962    1.2349 H   0  0  0  0  0  0  0  0  0  0  0  0
    1.8395    0.7615    1.3967 H   0  0  0  0  0  0  0  0  0  0  0  0
    2.7237   -0.8080   -1.0858 H   0  0  0  0  0  0  0  0  0  0  0  0
    2.7320    0.9516   -0.9456 H   0  0  0  0  0  0  0  0  0  0  0  0
    0.2661    0.9594   -0.5565 H   0  0  0  0  0  0  0  0  0  0  0  0
    0.2186   -0.7930   -0.6857 H   0  0  0  0  0  0  0  0  0  0  0  0
    4.3159    0.7801    1.0003 H   0  0  0  0  0  0  0  0  0  0  0  0
    4.3231   -0.9762    0.8269 H   0  0  0  0  0  0  0  0  0  0  0  0
   -0.7119    0.8298    1.7492 H   0  0  0  0  0  0  0  0  0  0  0  0
   -0.7116   -0.9178    1.6568 H   0  0  0  0  0  0  0  0  0  0  0  0
    5.2359    1.0266   -1.3103 H   0  0  0  0  0  0  0  0  0  0  0  0
    5.2201   -0.7266   -1.5127 H   0  0  0  0  0  0  0  0  0  0  0  0
    6.8351   -0.9681    0.3817 H   0  0  0  0  0  0  0  0  0  0  0  0
    6.8517    0.7944    0.5887 H   0  0  0  0  0  0  0  0  0  0  0  0
    7.4799    0.0698   -0.9015 H   0  0  0  0  0  0  0  0  0  0  0  0
   -2.3198    2.1578    0.4374 H   0  0  0  0  0  0  0  0  0  0  0  0
   -4.5820    2.1172   -0.5900 H   0  0  0  0  0  0  0  0  0  0  0  0
   -4.3562   -2.1627   -0.6419 H   0  0  0  0  0  0  0  0  0  0  0  0
   -5.6347   -0.0739   -1.1471 H   0  0  0  0  0  0  0  0  0  0  0  0
  1  8  1  0  0  0  0
  1 12  2  0  0  0  0
  2  3  1  0  0  0  0
  2  4  1  0  0  0  0
  2 14  1  0  0  0  0
  2 15  1  0  0  0  0
  3  5  1  0  0  0  0
  3 16  1  0  0  0  0
  3 17  1  0  0  0  0
  4  6  1  0  0  0  0
  4 18  1  0  0  0  0
  4 19  1  0  0  0  0
  5  7  1  0  0  0  0
  5 20  1  0  0  0  0
  5 21  1  0  0  0  0
  6  8  1  0  0  0  0
  6 22  1  0  0  0  0
  6 23  1  0  0  0  0
  7  9  1  0  0  0  0
  7 24  1  0  0  0  0
  7 25  1  0  0  0  0
  8 10  2  0  0  0  0
  9 26  1  0  0  0  0
  9 27  1  0  0  0  0
  9 28  1  0  0  0  0
 10 11  1  0  0  0  0
 10 29  1  0  0  0  0
 11 13  2  0  0  0  0
 11 30  1  0  0  0  0
 12 13  1  0  0  0  0
 12 31  1  0  0  0  0
 13 32  1  0  0  0  0
M  END
> <PUBCHEM_COMPOUND_CID>
72919

> <PUBCHEM_CONFORMER_RMSD>
0.6

> <PUBCHEM_CONFORMER_DIVERSEORDER>
1
215
86
39
213
129
207
185
125
145
184
40
198
69
152
7
203
9
85
97
88
111
149
182
78
74
24
43
162
16
101
35
36
134
122
53
62
67
12
61
172
2
161
28
73
199
14
98
50
91
208
89
22
41
164
169
6
211
154
132
31
18
32
82
37
204
5
105
156
30
175
26
49
155
174
64
177
108
57
107
96
157
202
80
54
137
77
10
15
183
110
3
19
166
55
150
141
176
104
94
21
210
11
13
42
23
113
4
44
34
197
138
93
102
63
38
171
84
8
168
90
123
83
46
212
112
17
71
209
120
186
51
48
140
173
60
115
128
20
205
68
87
47
196
121
75
76
188
147
70
66
189
160
25
72
148
142
103
135
65
143
58
126
151
158
181
118
180
193
124
109
130
139
165
106
95
27
153
117
116
119
214
178
206
99
92
52
191
163
79
170
81
100
127
59
192
195
29
133
201
33
200
45
190
56
144
194
187
179
167
136
131
146
114
159

> <PUBCHEM_MMFF94_PARTIAL_CHARGES>
11
1 -0.62
10 -0.15
11 -0.15
12 0.16
13 -0.15
29 0.15
30 0.15
31 0.15
32 0.15
6 0.14
8 0.17

> <PUBCHEM_EFFECTIVE_ROTOR_COUNT>
6

> <PUBCHEM_PHARMACOPHORE_FEATURES>
5
1 1 acceptor
1 9 hydrophobe
3 2 4 6 hydrophobe
3 3 5 7 hydrophobe
6 1 8 10 11 12 13 rings

> <PUBCHEM_HEAVY_ATOM_COUNT>
13

> <PUBCHEM_ATOM_DEF_STEREO_COUNT>
0

> <PUBCHEM_ATOM_UDEF_STEREO_COUNT>
0

> <PUBCHEM_BOND_DEF_STEREO_COUNT>
0

> <PUBCHEM_BOND_UDEF_STEREO_COUNT>
0

> <PUBCHEM_ISOTOPIC_ATOM_COUNT>
0

> <PUBCHEM_COMPONENT_COUNT>
1

> <PUBCHEM_CACTVS_TAUTO_COUNT>
2

> <PUBCHEM_CONFORMER_ID>
00011CD700000001

> <PUBCHEM_MMFF94_ENERGY>
13.9611

> <PUBCHEM_FEATURE_SELFOVERLAP>
25.384

> <PUBCHEM_SHAPE_FINGERPRINT>
10680689 15 18411422825545379555
11089746 13 17749107812247991052
11287383 113 17917991707215366104
11315181 36 17989209256736233928
11401426 45 18040154020086896832
114248 4 18060701693360355488
12091667 2 18260833700431447936
13214271 11 11530481138477705075
13288520 33 18202563999491208175
14123238 8 14045742621507236124
1420 363 16272211899165027638
14251718 22 18272652363856087414
15242439 84 18202280303689442432
15716309 27 13254799032151135620
17834072 33 18410293640357878892
17834076 25 17022621979240887176
17870717 6 18130796650299710863
19489759 90 18411136926868469792
200 152 16271928198846689978
20281389 69 14634867565871767486
20300324 65 18408323280855399073
20325693 3 18412262835681634575
20432913 95 14405192763430328878
20645477 56 18410575042357354537
20645477 70 18269276773165618262
20767249 213 14345793855358292559
23402539 116 18260265248556420204
23402655 69 18113896018250988124
23466295 7 16485262166961321735
23557571 272 17988929929006255408
23559900 14 18202273740863558336
300161 21 17894625955385125506
351380 3 14045741508989504356
42 15 10519987071371139800
42788 4 18333450945998709484
49783359 22 11600006535635590084
542803 24 17458064863476463708

> <PUBCHEM_SHAPE_MULTIPOLES>
262.55
14.29
1.03
0.88
19.78
0.01
0.04
0.06
-3.67
-1.44
-0.05
0
0
-0.06

> <PUBCHEM_SHAPE_SELFOVERLAP>
511.353

> <PUBCHEM_SHAPE_VOLUME>
158.6

> <PUBCHEM_COORDINATE_TYPE>
2
5
10

$$$$
