73045098
  -OEChem-11232108573D

 42 43  0     1  0  0  0  0  0999 V2000
    4.2464   -0.9218    0.6777 O   0  0  0  0  0  0  0  0  0  0  0  0
    0.4135    0.4328   -0.2682 C   0  0  1  0  0  0  0  0  0  0  0  0
    0.7488   -1.0354    0.1486 C   0  0  1  0  0  0  0  0  0  0  0  0
   -1.0021    0.7756    0.2802 C   0  0  0  0  0  0  0  0  0  0  0  0
    1.4946    1.3597    0.3980 C   0  0  1  0  0  0  0  0  0  0  0  0
   -2.0902   -0.2323   -0.1333 C   0  0  1  0  0  0  0  0  0  0  0  0
   -0.3189   -2.0441   -0.2953 C   0  0  0  0  0  0  0  0  0  0  0  0
   -1.6960   -1.6641    0.2417 C   0  0  0  0  0  0  0  0  0  0  0  0
    2.1394   -1.4722   -0.3148 C   0  0  0  0  0  0  0  0  0  0  0  0
    0.4076    0.6158   -1.8064 C   0  0  0  0  0  0  0  0  0  0  0  0
    2.9289    0.9622    0.0092 C   0  0  0  0  0  0  0  0  0  0  0  0
   -3.4299    0.1365    0.5061 C   0  0  0  0  0  0  0  0  0  0  0  0
    3.1836   -0.5145    0.2085 C   0  0  0  0  0  0  0  0  0  0  0  0
    1.3037    2.8577    0.1299 C   0  0  0  0  0  0  0  0  0  0  0  0
   -4.5212   -0.8302    0.0552 C   0  0  0  0  0  0  0  0  0  0  0  0
   -3.8081    1.5746    0.1629 C   0  0  0  0  0  0  0  0  0  0  0  0
    0.7613   -1.0627    1.2499 H   0  0  0  0  0  0  0  0  0  0  0  0
   -1.2680    1.7742   -0.0798 H   0  0  0  0  0  0  0  0  0  0  0  0
   -0.9624    0.8319    1.3764 H   0  0  0  0  0  0  0  0  0  0  0  0
    1.4107    1.2242    1.4865 H   0  0  0  0  0  0  0  0  0  0  0  0
   -2.2069   -0.1879   -1.2241 H   0  0  0  0  0  0  0  0  0  0  0  0
   -0.0602   -3.0434    0.0765 H   0  0  0  0  0  0  0  0  0  0  0  0
   -0.3517   -2.1225   -1.3879 H   0  0  0  0  0  0  0  0  0  0  0  0
   -2.4106   -2.3894   -0.1609 H   0  0  0  0  0  0  0  0  0  0  0  0
   -1.7002   -1.7808    1.3330 H   0  0  0  0  0  0  0  0  0  0  0  0
    2.2189   -1.5181   -1.4054 H   0  0  0  0  0  0  0  0  0  0  0  0
    2.3652   -2.4710    0.0770 H   0  0  0  0  0  0  0  0  0  0  0  0
    1.3993    0.4835   -2.2472 H   0  0  0  0  0  0  0  0  0  0  0  0
    0.0604    1.6169   -2.0845 H   0  0  0  0  0  0  0  0  0  0  0  0
   -0.2544   -0.0944   -2.3092 H   0  0  0  0  0  0  0  0  0  0  0  0
    3.6422    1.5155    0.6321 H   0  0  0  0  0  0  0  0  0  0  0  0
    3.1503    1.2066   -1.0349 H   0  0  0  0  0  0  0  0  0  0  0  0
   -3.3537    0.0657    1.5993 H   0  0  0  0  0  0  0  0  0  0  0  0
    1.3990    3.0980   -0.9332 H   0  0  0  0  0  0  0  0  0  0  0  0
    2.0634    3.4390    0.6649 H   0  0  0  0  0  0  0  0  0  0  0  0
    0.3298    3.2109    0.4794 H   0  0  0  0  0  0  0  0  0  0  0  0
   -4.3878   -1.8284    0.4824 H   0  0  0  0  0  0  0  0  0  0  0  0
   -5.5057   -0.4838    0.3901 H   0  0  0  0  0  0  0  0  0  0  0  0
   -4.5564   -0.9188   -1.0360 H   0  0  0  0  0  0  0  0  0  0  0  0
   -4.8404    1.7843    0.4659 H   0  0  0  0  0  0  0  0  0  0  0  0
   -3.1847    2.3009    0.6931 H   0  0  0  0  0  0  0  0  0  0  0  0
   -3.7358    1.7666   -0.9131 H   0  0  0  0  0  0  0  0  0  0  0  0
  1 13  2  0  0  0  0
  2  3  1  0  0  0  0
  2  4  1  0  0  0  0
  2  5  1  0  0  0  0
  2 10  1  0  0  0  0
  3  7  1  0  0  0  0
  3  9  1  0  0  0  0
  3 17  1  0  0  0  0
  4  6  1  0  0  0  0
  4 18  1  0  0  0  0
  4 19  1  0  0  0  0
  5 11  1  0  0  0  0
  5 14  1  0  0  0  0
  5 20  1  0  0  0  0
  6  8  1  0  0  0  0
  6 12  1  0  0  0  0
  6 21  1  0  0  0  0
  7  8  1  0  0  0  0
  7 22  1  0  0  0  0
  7 23  1  0  0  0  0
  8 24  1  0  0  0  0
  8 25  1  0  0  0  0
  9 13  1  0  0  0  0
  9 26  1  0  0  0  0
  9 27  1  0  0  0  0
 10 28  1  0  0  0  0
 10 29  1  0  0  0  0
 10 30  1  0  0  0  0
 11 13  1  0  0  0  0
 11 31  1  0  0  0  0
 11 32  1  0  0  0  0
 12 15  1  0  0  0  0
 12 16  1  0  0  0  0
 12 33  1  0  0  0  0
 14 34  1  0  0  0  0
 14 35  1  0  0  0  0
 14 36  1  0  0  0  0
 15 37  1  0  0  0  0
 15 38  1  0  0  0  0
 15 39  1  0  0  0  0
 16 40  1  0  0  0  0
 16 41  1  0  0  0  0
 16 42  1  0  0  0  0
M  END
> <PUBCHEM_COMPOUND_CID>
73045098

> <PUBCHEM_CONFORMER_RMSD>
0.6

> <PUBCHEM_CONFORMER_DIVERSEORDER>
1
14
31
9
20
16
29
32
33
18
11
36
22
34
4
37
30
19
21
6
25
15
17
5
2
27
39
24
3
8
38
28
12
7
35
13
26
10
40
23

> <PUBCHEM_MMFF94_PARTIAL_CHARGES>
4
1 -0.57
11 0.06
13 0.45
9 0.06

> <PUBCHEM_EFFECTIVE_ROTOR_COUNT>
2.4

> <PUBCHEM_PHARMACOPHORE_FEATURES>
4
1 1 acceptor
3 12 15 16 hydrophobe
6 2 3 4 6 7 8 rings
6 2 3 5 9 11 13 rings

> <PUBCHEM_HEAVY_ATOM_COUNT>
16

> <PUBCHEM_ATOM_DEF_STEREO_COUNT>
0

> <PUBCHEM_ATOM_UDEF_STEREO_COUNT>
4

> <PUBCHEM_BOND_DEF_STEREO_COUNT>
0

> <PUBCHEM_BOND_UDEF_STEREO_COUNT>
0

> <PUBCHEM_ISOTOPIC_ATOM_COUNT>
0

> <PUBCHEM_COMPONENT_COUNT>
1

> <PUBCHEM_CACTVS_TAUTO_COUNT>
3

> <PUBCHEM_CONFORMER_ID>
045A946A00000001

> <PUBCHEM_MMFF94_ENERGY>
42.8506

> <PUBCHEM_FEATURE_SELFOVERLAP>
20.313

> <PUBCHEM_SHAPE_FINGERPRINT>
10130415 120 18334573534190452442
10608611 8 18410574019943979113
10967382 1 18411983576259228218
10980938 120 18411420613579225570
11132069 177 18342172228795447506
11471102 20 18410852183094514767
11806522 49 18409447007651253703
12011746 2 18340770355917845022
12119455 92 16630237026832014870
12251169 10 18410853295607205930
12403259 226 18409443722143768501
12403260 363 18412821413305756953
12507560 14 18343300370569658560
12716301 132 17461970255352878228
13132413 78 18342176618167816309
13140716 1 18339080522246566627
13380535 76 18412827997163944367
13581323 91 18336266825046848287
13922767 16 18411418388854757473
14144814 61 18411984667423644585
14178342 30 17980179096844687602
14251717 144 18411980256513486383
14344429 50 18411709810806881804
15196674 1 18411138026026591761
15375462 189 18040988506494621282
15375462 478 17846495902819906424
15442244 35 18411135861378879312
15501101 241 18259704497294016572
15536298 74 18343302599673451082
15775835 57 18337680826743211909
15852999 172 16056887943668928518
16945 1 18411982481227352998
17802600 8 18409445891107131477
17804303 29 18335707134609692255
17862501 102 18341889710421388723
18186145 218 18130239185304349793
18511873 20 18341893004291760354
200 152 18202272620557289991
20233049 118 18261957349295626324
20511035 2 18118416260918991126
20671657 1 18265340679692275844
21267235 1 18411428309997518427
21501502 16 18196087961322893158
21524375 3 18410576201887735099
21637258 2 15791719794393666930
22094290 62 18339924917069631769
22854114 111 18411423946684876337
2334 1 18051414272816275099
23402539 116 18200865188953022839
23463225 33 18408885144118498672
23557571 272 16773796983464328539
23559900 14 18341608273735211608
2748010 2 18051976909321596982
3286 77 18335419097286898341
5104073 3 18411139147313802217
53812653 166 18339922623556933387
69090 78 18342736351602202607
7364860 26 18268712877733575872
74978 22 18339645666880497755
7832392 63 18413105086794143658
9709674 26 18340775917953805823

> <PUBCHEM_SHAPE_MULTIPOLES>
323.4
6.72
2.29
0.9
3.49
0.72
0.35
-0.37
-1.31
-0.5
-0.09
-0.16
0.1
-0.11

> <PUBCHEM_SHAPE_SELFOVERLAP>
655.63

> <PUBCHEM_SHAPE_VOLUME>
187.5

> <PUBCHEM_COORDINATE_TYPE>
2
5
10

$$$$
