7336
  -OEChem-11232108503D

 35 35  0     1  0  0  0  0  0999 V2000
   -1.7398    0.7377    0.0572 O   0  0  0  0  0  0  0  0  0  0  0  0
   -2.2715   -1.0404   -1.3136 O   0  0  0  0  0  0  0  0  0  0  0  0
    1.8712   -0.2121   -0.3000 C   0  0  1  0  0  0  0  0  0  0  0  0
    0.3704   -0.3965   -0.0596 C   0  0  0  0  0  0  0  0  0  0  0  0
   -0.4196    0.8533   -0.4723 C   0  0  2  0  0  0  0  0  0  0  0  0
    2.3858    0.9930    0.5046 C   0  0  0  0  0  0  0  0  0  0  0  0
    0.2204    2.1508   -0.0317 C   0  0  0  0  0  0  0  0  0  0  0  0
    1.4857    2.1918    0.4218 C   0  0  0  0  0  0  0  0  0  0  0  0
    2.6349   -1.4535    0.0495 C   0  0  0  0  0  0  0  0  0  0  0  0
   -0.6055    3.3993   -0.1563 C   0  0  0  0  0  0  0  0  0  0  0  0
    3.3934   -2.1010   -1.0711 C   0  0  0  0  0  0  0  0  0  0  0  0
    2.6401   -1.9563    1.2929 C   0  0  0  0  0  0  0  0  0  0  0  0
   -2.4155   -0.4034   -0.2793 C   0  0  0  0  0  0  0  0  0  0  0  0
   -3.3734   -0.7558    0.8345 C   0  0  0  0  0  0  0  0  0  0  0  0
   -4.1765   -2.0067    0.5234 C   0  0  0  0  0  0  0  0  0  0  0  0
    2.0134    0.0086   -1.3678 H   0  0  0  0  0  0  0  0  0  0  0  0
    0.1651   -0.6200    0.9969 H   0  0  0  0  0  0  0  0  0  0  0  0
    0.0317   -1.2758   -0.6201 H   0  0  0  0  0  0  0  0  0  0  0  0
   -0.4925    0.8918   -1.5681 H   0  0  0  0  0  0  0  0  0  0  0  0
    3.3771    1.2737    0.1261 H   0  0  0  0  0  0  0  0  0  0  0  0
    2.5138    0.7579    1.5680 H   0  0  0  0  0  0  0  0  0  0  0  0
    1.9143    3.1382    0.7414 H   0  0  0  0  0  0  0  0  0  0  0  0
   -1.4715    3.3561    0.5117 H   0  0  0  0  0  0  0  0  0  0  0  0
   -0.9629    3.5153   -1.1847 H   0  0  0  0  0  0  0  0  0  0  0  0
   -0.0350    4.2987    0.0988 H   0  0  0  0  0  0  0  0  0  0  0  0
    2.7089   -2.3942   -1.8738 H   0  0  0  0  0  0  0  0  0  0  0  0
    4.1343   -1.4062   -1.4800 H   0  0  0  0  0  0  0  0  0  0  0  0
    3.9258   -2.9999   -0.7431 H   0  0  0  0  0  0  0  0  0  0  0  0
    3.1987   -2.8562    1.5296 H   0  0  0  0  0  0  0  0  0  0  0  0
    2.0915   -1.4951    2.1067 H   0  0  0  0  0  0  0  0  0  0  0  0
   -2.7949   -0.9143    1.7507 H   0  0  0  0  0  0  0  0  0  0  0  0
   -4.0576    0.0863    0.9828 H   0  0  0  0  0  0  0  0  0  0  0  0
   -3.5184   -2.8694    0.3750 H   0  0  0  0  0  0  0  0  0  0  0  0
   -4.8604   -2.2354    1.3465 H   0  0  0  0  0  0  0  0  0  0  0  0
   -4.7689   -1.8769   -0.3884 H   0  0  0  0  0  0  0  0  0  0  0  0
  1  5  1  0  0  0  0
  1 13  1  0  0  0  0
  2 13  2  0  0  0  0
  3  4  1  0  0  0  0
  3  6  1  0  0  0  0
  3  9  1  0  0  0  0
  3 16  1  0  0  0  0
  4  5  1  0  0  0  0
  4 17  1  0  0  0  0
  4 18  1  0  0  0  0
  5  7  1  0  0  0  0
  5 19  1  0  0  0  0
  6  8  1  0  0  0  0
  6 20  1  0  0  0  0
  6 21  1  0  0  0  0
  7  8  2  0  0  0  0
  7 10  1  0  0  0  0
  8 22  1  0  0  0  0
  9 11  1  0  0  0  0
  9 12  2  0  0  0  0
 10 23  1  0  0  0  0
 10 24  1  0  0  0  0
 10 25  1  0  0  0  0
 11 26  1  0  0  0  0
 11 27  1  0  0  0  0
 11 28  1  0  0  0  0
 12 29  1  0  0  0  0
 12 30  1  0  0  0  0
 13 14  1  0  0  0  0
 14 15  1  0  0  0  0
 14 31  1  0  0  0  0
 14 32  1  0  0  0  0
 15 33  1  0  0  0  0
 15 34  1  0  0  0  0
 15 35  1  0  0  0  0
M  END
> <PUBCHEM_COMPOUND_CID>
7336

> <PUBCHEM_CONFORMER_RMSD>
0.6

> <PUBCHEM_CONFORMER_DIVERSEORDER>
1
44
75
31
43
71
33
58
62
67
50
49
69
59
57
66
8
68
12
74
54
22
70
11
41
72
76
35
52
26
53
47
30
56
27
7
36
46
4
21
38
25
18
73
13
40
55
16
24
34
6
60
51
48
17
42
29
20
63
37
5
2
32
15
61
39
28
64
65
14
10
45
23
9
3
19

> <PUBCHEM_MMFF94_PARTIAL_CHARGES>
16
1 -0.43
10 0.14
11 0.14
12 -0.3
13 0.66
14 0.06
2 -0.57
22 0.15
29 0.15
3 0.14
30 0.15
5 0.42
6 0.14
7 -0.28
8 -0.29
9 -0.28

> <PUBCHEM_EFFECTIVE_ROTOR_COUNT>
4.8

> <PUBCHEM_PHARMACOPHORE_FEATURES>
3
1 15 hydrophobe
1 2 acceptor
6 3 4 5 6 7 8 rings

> <PUBCHEM_HEAVY_ATOM_COUNT>
15

> <PUBCHEM_ATOM_DEF_STEREO_COUNT>
0

> <PUBCHEM_ATOM_UDEF_STEREO_COUNT>
2

> <PUBCHEM_BOND_DEF_STEREO_COUNT>
0

> <PUBCHEM_BOND_UDEF_STEREO_COUNT>
0

> <PUBCHEM_ISOTOPIC_ATOM_COUNT>
0

> <PUBCHEM_COMPONENT_COUNT>
1

> <PUBCHEM_CACTVS_TAUTO_COUNT>
1

> <PUBCHEM_CONFORMER_ID>
00001CA800000001

> <PUBCHEM_MMFF94_ENERGY>
20.1763

> <PUBCHEM_FEATURE_SELFOVERLAP>
15.223

> <PUBCHEM_SHAPE_FINGERPRINT>
10618630 7 18334295340226033282
114674 6 17897731100550047387
12553582 1 18412259515108166150
13140716 1 18339636729069697697
13296908 3 18334289873022711871
13533116 47 18194693790150438275
13538477 17 17686060496766275782
14178342 30 17838607113207182667
14252887 29 18343305889861291874
15279307 12 17697039506605550247
15375462 189 18340487867012458035
15422964 175 18408882970791232881
16945 1 18195236947876187741
20291156 8 18410860940612329339
20339313 130 18341899601298411778
20559304 39 18268716193537940673
20645476 183 17324940161656254268
20645477 70 18339631360904033183
20871998 184 18057037995767149036
20871998 22 18412266133673302896
21296965 67 18411139104100286705
22445834 79 18199472241318219433
2255824 54 17978794841448685749
23184049 29 18337382726190737096
2334 1 18411130350936098365
23500284 5 18189332359960430403
23526113 38 18044624655930071621
23530152 11 17328309558809665173
23557571 272 17983282743503170618
23559900 14 17551224070565399998
23598291 2 18059857319827744551
23598294 1 18049724014412622634
2748010 2 18339908342912331356
3071541 236 17616522969993421480
31174 14 18264209295618189039
33824 294 18120090851777969827
54173680 148 18122345679279763440
5902787 121 18335413526582674050
7364860 26 18197221557763481924
81228 2 18051682257306399552
94968 8 18334583472476159122

> <PUBCHEM_SHAPE_MULTIPOLES>
296.95
6.01
3.32
1.01
3.76
2.21
0.01
-5.97
-0.58
-0.55
-0.14
-0.22
-0.48
0.5

> <PUBCHEM_SHAPE_SELFOVERLAP>
590.31

> <PUBCHEM_SHAPE_VOLUME>
176

> <PUBCHEM_COORDINATE_TYPE>
2
5
10

$$$$
