73690
  -OEChem-11232109443D

 22 22  0     0  0  0  0  0  0999 V2000
    2.7430    0.4233    0.1850 O   0  0  0  0  0  0  0  0  0  0  0  0
   -1.3580   -0.0072   -0.2906 C   0  0  0  0  0  0  0  0  0  0  0  0
   -2.8311   -0.1618   -0.4620 C   0  0  0  0  0  0  0  0  0  0  0  0
   -0.8020    1.2639   -0.1466 C   0  0  0  0  0  0  0  0  0  0  0  0
   -0.5358   -1.1340   -0.2750 C   0  0  0  0  0  0  0  0  0  0  0  0
    1.3984    0.2816    0.0284 C   0  0  0  0  0  0  0  0  0  0  0  0
   -3.5583   -0.3146    0.8716 C   0  0  0  0  0  0  0  0  0  0  0  0
    0.5762    1.4083    0.0128 C   0  0  0  0  0  0  0  0  0  0  0  0
    0.8424   -0.9895   -0.1155 C   0  0  0  0  0  0  0  0  0  0  0  0
    3.5253   -0.7699    0.1919 C   0  0  0  0  0  0  0  0  0  0  0  0
   -3.2381    0.7027   -1.0012 H   0  0  0  0  0  0  0  0  0  0  0  0
   -3.0452   -1.0323   -1.0948 H   0  0  0  0  0  0  0  0  0  0  0  0
   -1.4319    2.1496   -0.1553 H   0  0  0  0  0  0  0  0  0  0  0  0
   -0.9581   -2.1296   -0.3845 H   0  0  0  0  0  0  0  0  0  0  0  0
   -3.2057   -1.1971    1.4161 H   0  0  0  0  0  0  0  0  0  0  0  0
   -4.6343   -0.4252    0.7045 H   0  0  0  0  0  0  0  0  0  0  0  0
   -3.4012    0.5607    1.5108 H   0  0  0  0  0  0  0  0  0  0  0  0
    1.0036    2.4010    0.1250 H   0  0  0  0  0  0  0  0  0  0  0  0
    1.4222   -1.9062   -0.1118 H   0  0  0  0  0  0  0  0  0  0  0  0
    3.4638   -1.2970   -0.7662 H   0  0  0  0  0  0  0  0  0  0  0  0
    3.2668   -1.4156    1.0381 H   0  0  0  0  0  0  0  0  0  0  0  0
    4.5700   -0.4707    0.3255 H   0  0  0  0  0  0  0  0  0  0  0  0
  1  6  1  0  0  0  0
  1 10  1  0  0  0  0
  2  3  1  0  0  0  0
  2  4  2  0  0  0  0
  2  5  1  0  0  0  0
  3  7  1  0  0  0  0
  3 11  1  0  0  0  0
  3 12  1  0  0  0  0
  4  8  1  0  0  0  0
  4 13  1  0  0  0  0
  5  9  2  0  0  0  0
  5 14  1  0  0  0  0
  6  8  2  0  0  0  0
  6  9  1  0  0  0  0
  7 15  1  0  0  0  0
  7 16  1  0  0  0  0
  7 17  1  0  0  0  0
  8 18  1  0  0  0  0
  9 19  1  0  0  0  0
 10 20  1  0  0  0  0
 10 21  1  0  0  0  0
 10 22  1  0  0  0  0
M  END
> <PUBCHEM_COMPOUND_CID>
73690

> <PUBCHEM_CONFORMER_RMSD>
0.4

> <PUBCHEM_CONFORMER_DIVERSEORDER>
1
3
4
2

> <PUBCHEM_MMFF94_PARTIAL_CHARGES>
13
1 -0.36
10 0.28
13 0.15
14 0.15
18 0.15
19 0.15
2 -0.14
3 0.14
4 -0.15
5 -0.15
6 0.08
8 -0.15
9 -0.15

> <PUBCHEM_EFFECTIVE_ROTOR_COUNT>
2

> <PUBCHEM_PHARMACOPHORE_FEATURES>
3
1 1 acceptor
1 7 hydrophobe
6 2 4 5 6 8 9 rings

> <PUBCHEM_HEAVY_ATOM_COUNT>
10

> <PUBCHEM_ATOM_DEF_STEREO_COUNT>
0

> <PUBCHEM_ATOM_UDEF_STEREO_COUNT>
0

> <PUBCHEM_BOND_DEF_STEREO_COUNT>
0

> <PUBCHEM_BOND_UDEF_STEREO_COUNT>
0

> <PUBCHEM_ISOTOPIC_ATOM_COUNT>
0

> <PUBCHEM_COMPONENT_COUNT>
1

> <PUBCHEM_CACTVS_TAUTO_COUNT>
1

> <PUBCHEM_CONFORMER_ID>
00011FDA00000001

> <PUBCHEM_MMFF94_ENERGY>
29.8411

> <PUBCHEM_FEATURE_SELFOVERLAP>
15.223

> <PUBCHEM_SHAPE_FINGERPRINT>
10219947 1 18413108372480847039
10857977 72 18335133211294346145
11062470 55 12175905450076030267
12032990 46 18409172090767766222
14325111 11 18411134744713892484
16945 1 18412538825320476620
17844478 74 18113338609063783173
193761 8 17618218850609355182
20871998 22 18270411468405574503
21040471 1 18124030397449943605
23235685 24 18342171180675526309
23402655 69 18124292949671615565
23552423 10 18118116103082124996
2748010 2 18124874551686197468
29004967 10 18334297569640932153
369184 2 15195558001138365270
5084963 1 18342452647078263072

> <PUBCHEM_SHAPE_MULTIPOLES>
199.93
5.16
1.3
0.73
0.13
0.22
0.05
-1.17
1.04
0.22
-0.04
-0.34
-0.04
0.06

> <PUBCHEM_SHAPE_SELFOVERLAP>
405.361

> <PUBCHEM_SHAPE_VOLUME>
118.2

> <PUBCHEM_COORDINATE_TYPE>
2
5
10

$$$$
