73750
  -OEChem-11232109053D

 11 10  0     0  0  0  0  0  0999 V2000
   -0.7866   -1.0094   -0.0003 S   0  0  0  0  0  0  0  0  0  0  0  0
    0.4525    1.3236   -0.0003 O   0  0  0  0  0  0  0  0  0  0  0  0
    1.9176   -0.5786    0.0000 C   0  0  0  0  0  0  0  0  0  0  0  0
    0.5799    0.1053    0.0003 C   0  0  0  0  0  0  0  0  0  0  0  0
   -2.1634    0.1592    0.0002 C   0  0  0  0  0  0  0  0  0  0  0  0
    2.0294   -1.1916   -0.8986 H   0  0  0  0  0  0  0  0  0  0  0  0
    2.0278   -1.1958    0.8961 H   0  0  0  0  0  0  0  0  0  0  0  0
    2.7092    0.1767    0.0026 H   0  0  0  0  0  0  0  0  0  0  0  0
   -2.1305    0.7895    0.8929 H   0  0  0  0  0  0  0  0  0  0  0  0
   -3.1065   -0.3937    0.0000 H   0  0  0  0  0  0  0  0  0  0  0  0
   -2.1305    0.7903   -0.8921 H   0  0  0  0  0  0  0  0  0  0  0  0
  1  4  1  0  0  0  0
  1  5  1  0  0  0  0
  2  4  2  0  0  0  0
  3  4  1  0  0  0  0
  3  6  1  0  0  0  0
  3  7  1  0  0  0  0
  3  8  1  0  0  0  0
  5  9  1  0  0  0  0
  5 10  1  0  0  0  0
  5 11  1  0  0  0  0
M  END
> <PUBCHEM_COMPOUND_CID>
73750

> <PUBCHEM_CONFORMER_RMSD>
0.4

> <PUBCHEM_CONFORMER_DIVERSEORDER>
1
2
5
6
3
4

> <PUBCHEM_MMFF94_PARTIAL_CHARGES>
5
1 -0.37
2 -0.57
3 0.06
4 0.65
5 0.23

> <PUBCHEM_EFFECTIVE_ROTOR_COUNT>
1

> <PUBCHEM_PHARMACOPHORE_FEATURES>
1
1 5 hydrophobe

> <PUBCHEM_HEAVY_ATOM_COUNT>
5

> <PUBCHEM_ATOM_DEF_STEREO_COUNT>
0

> <PUBCHEM_ATOM_UDEF_STEREO_COUNT>
0

> <PUBCHEM_BOND_DEF_STEREO_COUNT>
0

> <PUBCHEM_BOND_UDEF_STEREO_COUNT>
0

> <PUBCHEM_ISOTOPIC_ATOM_COUNT>
0

> <PUBCHEM_COMPONENT_COUNT>
1

> <PUBCHEM_CACTVS_TAUTO_COUNT>
1

> <PUBCHEM_CONFORMER_ID>
0001201600000001

> <PUBCHEM_MMFF94_ENERGY>
3.615

> <PUBCHEM_FEATURE_SELFOVERLAP>
5.074

> <PUBCHEM_SHAPE_FINGERPRINT>
139733 1 9295285040992867650
16714656 1 18338802204144495902
20096714 4 18338236080347282355
21015797 1 9508878381675835114
24536 1 18119514690325563827
29004967 10 18408045104276304970
5460574 1 9223230745431852739
5943 1 11435094570382856612

> <PUBCHEM_SHAPE_MULTIPOLES>
100.88
2.57
1.18
0.62
0.42
0.12
0
-0.21
0
-0.05
0
0.02
-0.04
0

> <PUBCHEM_SHAPE_SELFOVERLAP>
163.447

> <PUBCHEM_SHAPE_VOLUME>
71.7

> <PUBCHEM_COORDINATE_TYPE>
2
5
10

$$$$
