74010
  -OEChem-11232109483D

 26 26  0     0  0  0  0  0  0999 V2000
   -2.8122   -1.2494   -1.1366 O   0  0  0  0  0  0  0  0  0  0  0  0
    2.5513   -0.4109   -0.1580 C   0  0  0  0  0  0  0  0  0  0  0  0
    1.2384    0.2916   -0.0754 C   0  0  0  0  0  0  0  0  0  0  0  0
    0.1261   -0.3675    0.4477 C   0  0  0  0  0  0  0  0  0  0  0  0
    2.5019   -1.6456   -1.0777 C   0  0  0  0  0  0  0  0  0  0  0  0
    3.0924   -0.8130    1.2272 C   0  0  0  0  0  0  0  0  0  0  0  0
   -1.1018    0.2900    0.5248 C   0  0  0  0  0  0  0  0  0  0  0  0
    1.1231    1.6082   -0.5214 C   0  0  0  0  0  0  0  0  0  0  0  0
   -1.2170    1.6066    0.0788 C   0  0  0  0  0  0  0  0  0  0  0  0
   -0.1046    2.2658   -0.4442 C   0  0  0  0  0  0  0  0  0  0  0  0
   -2.2914   -0.4143    1.0838 C   0  0  0  0  0  0  0  0  0  0  0  0
   -3.1063   -1.1614    0.0510 C   0  0  0  0  0  0  0  0  0  0  0  0
    3.2924    0.2725   -0.5947 H   0  0  0  0  0  0  0  0  0  0  0  0
    0.2057   -1.3942    0.7960 H   0  0  0  0  0  0  0  0  0  0  0  0
    1.8424   -2.4255   -0.6819 H   0  0  0  0  0  0  0  0  0  0  0  0
    3.5011   -2.0800   -1.1909 H   0  0  0  0  0  0  0  0  0  0  0  0
    2.1387   -1.3735   -2.0750 H   0  0  0  0  0  0  0  0  0  0  0  0
    3.1543    0.0583    1.8885 H   0  0  0  0  0  0  0  0  0  0  0  0
    4.0976   -1.2391    1.1375 H   0  0  0  0  0  0  0  0  0  0  0  0
    2.4564   -1.5597    1.7147 H   0  0  0  0  0  0  0  0  0  0  0  0
    1.9795    2.1365   -0.9318 H   0  0  0  0  0  0  0  0  0  0  0  0
   -2.1684    2.1294    0.1317 H   0  0  0  0  0  0  0  0  0  0  0  0
   -0.1945    3.2908   -0.7919 H   0  0  0  0  0  0  0  0  0  0  0  0
   -1.9859   -1.1347    1.8518 H   0  0  0  0  0  0  0  0  0  0  0  0
   -2.9592    0.3014    1.5779 H   0  0  0  0  0  0  0  0  0  0  0  0
   -4.0135   -1.6542    0.4412 H   0  0  0  0  0  0  0  0  0  0  0  0
  1 12  2  0  0  0  0
  2  3  1  0  0  0  0
  2  5  1  0  0  0  0
  2  6  1  0  0  0  0
  2 13  1  0  0  0  0
  3  4  1  0  0  0  0
  3  8  2  0  0  0  0
  4  7  2  0  0  0  0
  4 14  1  0  0  0  0
  5 15  1  0  0  0  0
  5 16  1  0  0  0  0
  5 17  1  0  0  0  0
  6 18  1  0  0  0  0
  6 19  1  0  0  0  0
  6 20  1  0  0  0  0
  7  9  1  0  0  0  0
  7 11  1  0  0  0  0
  8 10  1  0  0  0  0
  8 21  1  0  0  0  0
  9 10  2  0  0  0  0
  9 22  1  0  0  0  0
 10 23  1  0  0  0  0
 11 12  1  0  0  0  0
 11 24  1  0  0  0  0
 11 25  1  0  0  0  0
 12 26  1  0  0  0  0
M  END
> <PUBCHEM_COMPOUND_CID>
74010

> <PUBCHEM_CONFORMER_RMSD>
0.6

> <PUBCHEM_CONFORMER_DIVERSEORDER>
1
12
5
8
4
9
11
6
7
2
3
10

> <PUBCHEM_MMFF94_PARTIAL_CHARGES>
15
1 -0.57
10 -0.15
11 0.2
12 0.45
14 0.15
2 0.14
21 0.15
22 0.15
23 0.15
26 0.06
3 -0.14
4 -0.15
7 -0.14
8 -0.15
9 -0.15

> <PUBCHEM_EFFECTIVE_ROTOR_COUNT>
3

> <PUBCHEM_PHARMACOPHORE_FEATURES>
3
1 1 acceptor
3 2 5 6 hydrophobe
6 3 4 7 8 9 10 rings

> <PUBCHEM_HEAVY_ATOM_COUNT>
12

> <PUBCHEM_ATOM_DEF_STEREO_COUNT>
0

> <PUBCHEM_ATOM_UDEF_STEREO_COUNT>
0

> <PUBCHEM_BOND_DEF_STEREO_COUNT>
0

> <PUBCHEM_BOND_UDEF_STEREO_COUNT>
0

> <PUBCHEM_ISOTOPIC_ATOM_COUNT>
0

> <PUBCHEM_COMPONENT_COUNT>
1

> <PUBCHEM_CACTVS_TAUTO_COUNT>
2

> <PUBCHEM_CONFORMER_ID>
0001211A00000001

> <PUBCHEM_MMFF94_ENERGY>
24.7993

> <PUBCHEM_FEATURE_SELFOVERLAP>
15.223

> <PUBCHEM_SHAPE_FINGERPRINT>
1 1 17541666448837460093
11206711 2 17968382255700563805
12138202 97 17830458284483173852
12202030 40 17845091753826142102
14128692 85 18341341062297430977
16945 1 18045793539326572657
17834072 14 18042662014488948008
20361792 2 18408045121435023015
20645476 183 16520223075779834428
20645477 70 18192714668882791827
20711985 344 18117004273303683480
20871998 184 18195817266708814173
20871998 22 18411429392439728474
21028194 46 9871749065903063241
23388829 49 18340767156019756532
23402539 116 18260553282233255742
23419403 2 17832376051858639984
23552423 10 17895774957552145284
2748010 2 18334577936231653084
6338986 31 18336253596199657379
7364860 26 18198069277086972080
8030462 33 17531540780216919522
81228 2 18190745228112663769

> <PUBCHEM_SHAPE_MULTIPOLES>
241.09
4.74
2.04
1.1
0.14
0.97
-0.03
-3.18
-0.09
0.21
0.53
-0.2
-0.38
-0.16

> <PUBCHEM_SHAPE_SELFOVERLAP>
489.706

> <PUBCHEM_SHAPE_VOLUME>
140.9

> <PUBCHEM_COORDINATE_TYPE>
2
5
10

$$$$
