74112
  -OEChem-11232109113D

 30 29  0     0  0  0  0  0  0999 V2000
    0.1654    0.2594    1.7768 O   0  0  0  0  0  0  0  0  0  0  0  0
   -1.0717   -1.9526   -0.7508 O   0  0  0  0  0  0  0  0  0  0  0  0
    3.3119   -0.1859   -1.0045 O   0  0  0  0  0  0  0  0  0  0  0  0
   -2.4510    1.0609   -0.9121 O   0  0  0  0  0  0  0  0  0  0  0  0
   -1.7432   -1.5384    1.4138 O   0  0  0  0  0  0  0  0  0  0  0  0
    2.9318    0.6737    1.1037 O   0  0  0  0  0  0  0  0  0  0  0  0
   -1.4632    2.5469    0.5512 O   0  0  0  0  0  0  0  0  0  0  0  0
    0.1308   -0.3001    0.4632 C   0  0  0  0  0  0  0  0  0  0  0  0
    1.4629   -1.0190    0.1961 C   0  0  0  0  0  0  0  0  0  0  0  0
   -0.1325    0.8395   -0.5318 C   0  0  0  0  0  0  0  0  0  0  0  0
   -1.0045   -1.3239    0.4603 C   0  0  0  0  0  0  0  0  0  0  0  0
    2.6467   -0.0787    0.1811 C   0  0  0  0  0  0  0  0  0  0  0  0
   -1.4052    1.6003   -0.2231 C   0  0  0  0  0  0  0  0  0  0  0  0
   -2.1021   -2.9369   -0.8799 C   0  0  0  0  0  0  0  0  0  0  0  0
    4.4453    0.6744   -1.1549 C   0  0  0  0  0  0  0  0  0  0  0  0
   -3.7214    1.6803   -0.6890 C   0  0  0  0  0  0  0  0  0  0  0  0
    1.4260   -1.5585   -0.7583 H   0  0  0  0  0  0  0  0  0  0  0  0
    1.6650   -1.7675    0.9725 H   0  0  0  0  0  0  0  0  0  0  0  0
   -0.1757    0.4742   -1.5650 H   0  0  0  0  0  0  0  0  0  0  0  0
    0.6708    1.5860   -0.5028 H   0  0  0  0  0  0  0  0  0  0  0  0
   -0.6939    0.6728    1.9650 H   0  0  0  0  0  0  0  0  0  0  0  0
   -3.0852   -2.4740   -0.7510 H   0  0  0  0  0  0  0  0  0  0  0  0
   -1.9530   -3.7394   -0.1513 H   0  0  0  0  0  0  0  0  0  0  0  0
   -2.0431   -3.3607   -1.8859 H   0  0  0  0  0  0  0  0  0  0  0  0
    4.1350    1.7222   -1.0991 H   0  0  0  0  0  0  0  0  0  0  0  0
    4.8838    0.4903   -2.1393 H   0  0  0  0  0  0  0  0  0  0  0  0
    5.1946    0.4514   -0.3894 H   0  0  0  0  0  0  0  0  0  0  0  0
   -4.0040    1.5947    0.3646 H   0  0  0  0  0  0  0  0  0  0  0  0
   -4.4656    1.1572   -1.2953 H   0  0  0  0  0  0  0  0  0  0  0  0
   -3.6910    2.7295   -0.9978 H   0  0  0  0  0  0  0  0  0  0  0  0
  1  8  1  0  0  0  0
  1 21  1  0  0  0  0
  2 11  1  0  0  0  0
  2 14  1  0  0  0  0
  3 12  1  0  0  0  0
  3 15  1  0  0  0  0
  4 13  1  0  0  0  0
  4 16  1  0  0  0  0
  5 11  2  0  0  0  0
  6 12  2  0  0  0  0
  7 13  2  0  0  0  0
  8  9  1  0  0  0  0
  8 10  1  0  0  0  0
  8 11  1  0  0  0  0
  9 12  1  0  0  0  0
  9 17  1  0  0  0  0
  9 18  1  0  0  0  0
 10 13  1  0  0  0  0
 10 19  1  0  0  0  0
 10 20  1  0  0  0  0
 14 22  1  0  0  0  0
 14 23  1  0  0  0  0
 14 24  1  0  0  0  0
 15 25  1  0  0  0  0
 15 26  1  0  0  0  0
 15 27  1  0  0  0  0
 16 28  1  0  0  0  0
 16 29  1  0  0  0  0
 16 30  1  0  0  0  0
M  END
> <PUBCHEM_COMPOUND_CID>
74112

> <PUBCHEM_CONFORMER_RMSD>
0.8

> <PUBCHEM_CONFORMER_DIVERSEORDER>
1
118
82
80
148
98
107
115
32
72
39
97
157
91
55
76
162
4
87
150
50
96
139
28
108
130
131
122
94
12
128
101
109
71
99
129
93
48
158
119
151
89
147
21
19
68
41
83
52
126
160
85
103
57
26
143
138
78
149
16
64
84
40
54
123
13
106
116
51
18
45
17
124
113
136
133
22
140
53
100
69
102
141
155
47
33
58
117
65
159
74
153
62
142
81
29
134
135
60
3
11
137
127
37
15
61
30
152
121
114
31
92
77
144
63
111
34
7
38
49
36
27
88
46
73
5
161
156
20
14
70
59
75
90
132
35
105
110
66
23
25
125
95
44
112
67
6
42
145
56
146
24
43
120
79
154
10
86
2
9
8
104

> <PUBCHEM_MMFF94_PARTIAL_CHARGES>
17
1 -0.68
10 0.06
11 0.66
12 0.66
13 0.66
14 0.28
15 0.28
16 0.28
2 -0.43
21 0.4
3 -0.43
4 -0.43
5 -0.57
6 -0.57
7 -0.57
8 0.34
9 0.06

> <PUBCHEM_EFFECTIVE_ROTOR_COUNT>
8

> <PUBCHEM_PHARMACOPHORE_FEATURES>
5
1 1 acceptor
1 1 donor
1 5 acceptor
1 6 acceptor
1 7 acceptor

> <PUBCHEM_HEAVY_ATOM_COUNT>
16

> <PUBCHEM_ATOM_DEF_STEREO_COUNT>
0

> <PUBCHEM_ATOM_UDEF_STEREO_COUNT>
0

> <PUBCHEM_BOND_DEF_STEREO_COUNT>
0

> <PUBCHEM_BOND_UDEF_STEREO_COUNT>
0

> <PUBCHEM_ISOTOPIC_ATOM_COUNT>
0

> <PUBCHEM_COMPONENT_COUNT>
1

> <PUBCHEM_CACTVS_TAUTO_COUNT>
1

> <PUBCHEM_CONFORMER_ID>
0001218000000001

> <PUBCHEM_MMFF94_ENERGY>
26.1342

> <PUBCHEM_FEATURE_SELFOVERLAP>
25.385

> <PUBCHEM_SHAPE_FINGERPRINT>
116883 192 17982994937544355199
12138202 97 18411138008904894478
12186901 62 18263382368179099398
12491281 212 18337954480579318745
12932764 1 18342181102635861074
13764800 53 18335143085329357024
14817 1 8593128050782725489
15490181 8 17905895773054294219
15502708 8 18411417349277538679
15775835 57 17603588491435126052
16945 1 18342730797723802552
18186145 218 17988071176044001617
18534176 82 18272370879856938782
201361 129 17554329116628354193
20525323 117 18187362172931583186
20602899 9 17775287114658179183
20645476 183 17603872169444839523
20671657 1 18190739731197628762
20871999 31 18339642351165999039
21524375 3 18118397341513939368
22620623 9 18201156658498246247
23419403 2 17058070350053107683
23526113 38 17274805957566014394
23557571 272 18199457956299392600
23559900 14 18272926112613907096
2748010 2 18125707131044052177
458136 41 17981339901818856193
6333449 129 18411700980280268001
7364860 26 17332513580499966621
81228 2 18335978778517032403

> <PUBCHEM_SHAPE_MULTIPOLES>
288.19
5.79
2.59
1.28
5.01
0.88
-0.26
-2.18
2.33
-3.16
0.46
0.21
0.12
-0.05

> <PUBCHEM_SHAPE_SELFOVERLAP>
564.811

> <PUBCHEM_SHAPE_VOLUME>
173

> <PUBCHEM_COORDINATE_TYPE>
2
5
10

$$$$
