74201
  -OEChem-11232109053D

 15 15  0     0  0  0  0  0  0999 V2000
    1.8517   -0.6410    0.0000 O   0  0  0  0  0  0  0  0  0  0  0  0
    0.2282    1.0172    0.0000 N   0  0  0  0  0  0  0  0  0  0  0  0
    0.5240   -0.3020    0.0000 C   0  0  0  0  0  0  0  0  0  0  0  0
   -0.4267   -1.3101    0.0000 C   0  0  0  0  0  0  0  0  0  0  0  0
   -1.7671   -0.9406    0.0000 C   0  0  0  0  0  0  0  0  0  0  0  0
   -2.1111    0.4067    0.0000 C   0  0  0  0  0  0  0  0  0  0  0  0
   -1.0852    1.3380    0.0000 C   0  0  0  0  0  0  0  0  0  0  0  0
    2.7862    0.4316    0.0000 C   0  0  0  0  0  0  0  0  0  0  0  0
   -0.1419   -2.3565    0.0000 H   0  0  0  0  0  0  0  0  0  0  0  0
   -2.5422   -1.7009   -0.0001 H   0  0  0  0  0  0  0  0  0  0  0  0
   -3.1494    0.7179    0.0000 H   0  0  0  0  0  0  0  0  0  0  0  0
   -1.3004    2.4014   -0.0001 H   0  0  0  0  0  0  0  0  0  0  0  0
    2.6815    1.0440    0.9019 H   0  0  0  0  0  0  0  0  0  0  0  0
    2.6814    1.0441   -0.9019 H   0  0  0  0  0  0  0  0  0  0  0  0
    3.7921    0.0015   -0.0001 H   0  0  0  0  0  0  0  0  0  0  0  0
  1  3  1  0  0  0  0
  1  8  1  0  0  0  0
  2  3  1  0  0  0  0
  2  7  2  0  0  0  0
  3  4  2  0  0  0  0
  4  5  1  0  0  0  0
  4  9  1  0  0  0  0
  5  6  2  0  0  0  0
  5 10  1  0  0  0  0
  6  7  1  0  0  0  0
  6 11  1  0  0  0  0
  7 12  1  0  0  0  0
  8 13  1  0  0  0  0
  8 14  1  0  0  0  0
  8 15  1  0  0  0  0
M  END
> <PUBCHEM_COMPOUND_CID>
74201

> <PUBCHEM_CONFORMER_RMSD>
0.4

> <PUBCHEM_CONFORMER_DIVERSEORDER>
1
2

> <PUBCHEM_MMFF94_PARTIAL_CHARGES>
12
1 -0.36
10 0.15
11 0.15
12 0.15
2 -0.62
3 0.39
4 -0.15
5 -0.15
6 -0.15
7 0.16
8 0.28
9 0.15

> <PUBCHEM_EFFECTIVE_ROTOR_COUNT>
1

> <PUBCHEM_PHARMACOPHORE_FEATURES>
3
1 1 acceptor
1 2 acceptor
6 2 3 4 5 6 7 rings

> <PUBCHEM_HEAVY_ATOM_COUNT>
8

> <PUBCHEM_ATOM_DEF_STEREO_COUNT>
0

> <PUBCHEM_ATOM_UDEF_STEREO_COUNT>
0

> <PUBCHEM_BOND_DEF_STEREO_COUNT>
0

> <PUBCHEM_BOND_UDEF_STEREO_COUNT>
0

> <PUBCHEM_ISOTOPIC_ATOM_COUNT>
0

> <PUBCHEM_COMPONENT_COUNT>
1

> <PUBCHEM_CACTVS_TAUTO_COUNT>
1

> <PUBCHEM_CONFORMER_ID>
000121D900000001

> <PUBCHEM_MMFF94_ENERGY>
23.172

> <PUBCHEM_FEATURE_SELFOVERLAP>
15.269

> <PUBCHEM_SHAPE_FINGERPRINT>
16714656 1 9439404635562673011
18185500 45 10015279335273046977
21040471 1 9222969061648643779
23552423 10 10951757591101867496
29004967 10 9439102282776310428
369184 2 16153422861427602264
5084963 1 8790885181104012974

> <PUBCHEM_SHAPE_MULTIPOLES>
153.79
3.19
1.38
0.59
1.89
0.04
0
0.23
0
-0.42
0
-0.03
0
0

> <PUBCHEM_SHAPE_SELFOVERLAP>
313.27

> <PUBCHEM_SHAPE_VOLUME>
89.2

> <PUBCHEM_COORDINATE_TYPE>
2
5
10

$$$$
