74360
  -OEChem-11232109243D

 29 29  0     0  0  0  0  0  0999 V2000
    3.0791    1.0546    0.0292 O   0  0  0  0  0  0  0  0  0  0  0  0
    2.1633   -1.0904    0.3004 O   0  0  0  0  0  0  0  0  0  0  0  0
    0.6943    0.7738   -0.1527 C   0  0  0  0  0  0  0  0  0  0  0  0
   -0.5294    0.0134    0.3579 C   0  0  0  0  0  0  0  0  0  0  0  0
    1.9637    0.3100    0.5355 C   0  0  0  0  0  0  0  0  0  0  0  0
   -1.8123    0.5074   -0.3146 C   0  0  0  0  0  0  0  0  0  0  0  0
   -3.0401   -0.2290    0.2260 C   0  0  0  0  0  0  0  0  0  0  0  0
    4.0958    0.0731   -0.1624 C   0  0  0  0  0  0  0  0  0  0  0  0
    3.3155   -1.1563   -0.5395 C   0  0  0  0  0  0  0  0  0  0  0  0
   -4.3547    0.2449   -0.3975 C   0  0  0  0  0  0  0  0  0  0  0  0
   -5.5753   -0.5016    0.1177 C   0  0  0  0  0  0  0  0  0  0  0  0
    0.7867    0.6236   -1.2361 H   0  0  0  0  0  0  0  0  0  0  0  0
    0.5672    1.8526   -0.0014 H   0  0  0  0  0  0  0  0  0  0  0  0
   -0.4148   -1.0602    0.1673 H   0  0  0  0  0  0  0  0  0  0  0  0
   -0.6127    0.1424    1.4440 H   0  0  0  0  0  0  0  0  0  0  0  0
    1.9024    0.4699    1.6178 H   0  0  0  0  0  0  0  0  0  0  0  0
   -1.7426    0.3589   -1.3989 H   0  0  0  0  0  0  0  0  0  0  0  0
   -1.9282    1.5841   -0.1418 H   0  0  0  0  0  0  0  0  0  0  0  0
   -3.0935   -0.0961    1.3137 H   0  0  0  0  0  0  0  0  0  0  0  0
   -2.9245   -1.3048    0.0442 H   0  0  0  0  0  0  0  0  0  0  0  0
    4.6255   -0.0599    0.7872 H   0  0  0  0  0  0  0  0  0  0  0  0
    4.8033    0.3916   -0.9317 H   0  0  0  0  0  0  0  0  0  0  0  0
    2.9779   -1.1146   -1.5807 H   0  0  0  0  0  0  0  0  0  0  0  0
    3.8634   -2.0870   -0.3735 H   0  0  0  0  0  0  0  0  0  0  0  0
   -4.4846    1.3156   -0.2003 H   0  0  0  0  0  0  0  0  0  0  0  0
   -4.3028    0.1267   -1.4865 H   0  0  0  0  0  0  0  0  0  0  0  0
   -6.4835   -0.1221   -0.3605 H   0  0  0  0  0  0  0  0  0  0  0  0
   -5.6812   -0.3758    1.1998 H   0  0  0  0  0  0  0  0  0  0  0  0
   -5.4978   -1.5719   -0.0977 H   0  0  0  0  0  0  0  0  0  0  0  0
  1  5  1  0  0  0  0
  1  8  1  0  0  0  0
  2  5  1  0  0  0  0
  2  9  1  0  0  0  0
  3  4  1  0  0  0  0
  3  5  1  0  0  0  0
  3 12  1  0  0  0  0
  3 13  1  0  0  0  0
  4  6  1  0  0  0  0
  4 14  1  0  0  0  0
  4 15  1  0  0  0  0
  5 16  1  0  0  0  0
  6  7  1  0  0  0  0
  6 17  1  0  0  0  0
  6 18  1  0  0  0  0
  7 10  1  0  0  0  0
  7 19  1  0  0  0  0
  7 20  1  0  0  0  0
  8  9  1  0  0  0  0
  8 21  1  0  0  0  0
  8 22  1  0  0  0  0
  9 23  1  0  0  0  0
  9 24  1  0  0  0  0
 10 11  1  0  0  0  0
 10 25  1  0  0  0  0
 10 26  1  0  0  0  0
 11 27  1  0  0  0  0
 11 28  1  0  0  0  0
 11 29  1  0  0  0  0
M  END
> <PUBCHEM_COMPOUND_CID>
74360

> <PUBCHEM_CONFORMER_RMSD>
0.6

> <PUBCHEM_CONFORMER_DIVERSEORDER>
1
69
21
54
84
3
83
44
87
64
2
66
4
25
81
8
85
12
59
20
76
86
45
80
26
23
60
78
55
77
10
6
72
65
40
74
18
63
13
71
7
88
14
57
82
28
68
5
73
17
79
11
70
32
48
58
33
75
51
41
27
46
62
43
49
35
29
19
61
22
50
9
39
24
56
34
31
67
42
15
47
53
16
38
37
36
52
30

> <PUBCHEM_MMFF94_PARTIAL_CHARGES>
5
1 -0.56
2 -0.56
5 0.56
8 0.28
9 0.28

> <PUBCHEM_EFFECTIVE_ROTOR_COUNT>
6

> <PUBCHEM_PHARMACOPHORE_FEATURES>
5
1 1 acceptor
1 11 hydrophobe
1 2 acceptor
5 1 2 5 8 9 rings
5 3 4 6 7 10 hydrophobe

> <PUBCHEM_HEAVY_ATOM_COUNT>
11

> <PUBCHEM_ATOM_DEF_STEREO_COUNT>
0

> <PUBCHEM_ATOM_UDEF_STEREO_COUNT>
0

> <PUBCHEM_BOND_DEF_STEREO_COUNT>
0

> <PUBCHEM_BOND_UDEF_STEREO_COUNT>
0

> <PUBCHEM_ISOTOPIC_ATOM_COUNT>
0

> <PUBCHEM_COMPONENT_COUNT>
1

> <PUBCHEM_CACTVS_TAUTO_COUNT>
1

> <PUBCHEM_CONFORMER_ID>
0001227800000001

> <PUBCHEM_MMFF94_ENERGY>
9.1369

> <PUBCHEM_FEATURE_SELFOVERLAP>
25.412

> <PUBCHEM_SHAPE_FINGERPRINT>
11062470 55 11746936486347402609
114248 4 17967814959598850313
11987891 38 18272090504687475679
12932764 1 17131254805690782968
14123238 8 17603866715348024455
14251717 144 18342458118961816622
14251718 22 17531250590878107207
14252887 29 17988931050182175518
14455015 7 18411990148108168099
15242433 33 18272089413575794063
15477762 27 18412829058310464766
177051 138 17989208122658963751
17834072 33 18342175617709169557
17834076 25 15719392836674943476
20279233 1 17821733835794508611
20645477 70 18411137991799280854
20719005 15 18409166614905724049
20724930 37 7853857182820986016
212847 35 9799690406972001026
21293036 1 17385443215298756717
22485316 2 18342453755559581631
23402539 116 8935000344058807833
23402655 69 18410291393525623621
23557571 272 17095801031857216932
4047638 21 10881403131953742500
42 15 17989209235477473591
42788 4 18409729565265405189
522135 26 18272932717345199886

> <PUBCHEM_SHAPE_MULTIPOLES>
214.64
10.65
1.01
0.71
10.07
0.11
-0.01
1.77
-0.68
-0.7
-0.05
-0.01
0.02
0.27

> <PUBCHEM_SHAPE_SELFOVERLAP>
403.515

> <PUBCHEM_SHAPE_VOLUME>
134.2

> <PUBCHEM_COORDINATE_TYPE>
2
5
10

$$$$
