74408
  -OEChem-11232109163D

 46 46  0     0  0  0  0  0  0999 V2000
   -0.9887   -2.3468    0.3945 O   0  0  0  0  0  0  0  0  0  0  0  0
    2.2317    1.2494    0.0569 O   0  0  0  0  0  0  0  0  0  0  0  0
    1.0930    2.3731    1.7212 O   0  0  0  0  0  0  0  0  0  0  0  0
   -2.9602    0.4543   -0.6475 C   0  0  0  0  0  0  0  0  0  0  0  0
   -2.9310    1.9843   -0.7627 C   0  0  0  0  0  0  0  0  0  0  0  0
   -2.7718   -0.0451    0.7874 C   0  0  0  0  0  0  0  0  0  0  0  0
   -1.6518    2.6627   -0.2630 C   0  0  0  0  0  0  0  0  0  0  0  0
   -3.1711   -1.5125    0.9849 C   0  0  0  0  0  0  0  0  0  0  0  0
   -0.4319    2.3793   -1.1449 C   0  0  0  0  0  0  0  0  0  0  0  0
    1.5225   -1.7531   -1.0652 C   0  0  0  0  0  0  0  0  0  0  0  0
    2.9789   -1.2858   -1.0609 C   0  0  0  0  0  0  0  0  0  0  0  0
    1.2616   -2.9668   -0.1694 C   0  0  0  0  0  0  0  0  0  0  0  0
   -2.3811   -2.5148    0.1490 C   0  0  0  0  0  0  0  0  0  0  0  0
    3.5196   -0.7891    0.2856 C   0  0  0  0  0  0  0  0  0  0  0  0
   -0.2090   -3.3740   -0.2155 C   0  0  0  0  0  0  0  0  0  0  0  0
    0.8381    3.0249   -0.5923 C   0  0  0  0  0  0  0  0  0  0  0  0
    2.6516    0.2485    0.9944 C   0  0  0  0  0  0  0  0  0  0  0  0
    1.3996    2.2114    0.5475 C   0  0  0  0  0  0  0  0  0  0  0  0
   -3.9301    0.1087   -1.0265 H   0  0  0  0  0  0  0  0  0  0  0  0
   -2.1970    0.0155   -1.2994 H   0  0  0  0  0  0  0  0  0  0  0  0
   -3.7776    2.3898   -0.1940 H   0  0  0  0  0  0  0  0  0  0  0  0
   -3.1037    2.2626   -1.8096 H   0  0  0  0  0  0  0  0  0  0  0  0
   -1.7290    0.0939    1.0955 H   0  0  0  0  0  0  0  0  0  0  0  0
   -3.3836    0.5621    1.4662 H   0  0  0  0  0  0  0  0  0  0  0  0
   -1.4561    2.3734    0.7743 H   0  0  0  0  0  0  0  0  0  0  0  0
   -1.8249    3.7464   -0.2492 H   0  0  0  0  0  0  0  0  0  0  0  0
   -3.0219   -1.7517    2.0455 H   0  0  0  0  0  0  0  0  0  0  0  0
   -4.2406   -1.6348    0.7774 H   0  0  0  0  0  0  0  0  0  0  0  0
   -0.6233    2.7804   -2.1474 H   0  0  0  0  0  0  0  0  0  0  0  0
   -0.2824    1.2998   -1.2531 H   0  0  0  0  0  0  0  0  0  0  0  0
    0.8645   -0.9251   -0.7807 H   0  0  0  0  0  0  0  0  0  0  0  0
    1.2528   -2.0126   -2.0971 H   0  0  0  0  0  0  0  0  0  0  0  0
    3.6222   -2.1000   -1.4167 H   0  0  0  0  0  0  0  0  0  0  0  0
    3.0786   -0.4790   -1.7982 H   0  0  0  0  0  0  0  0  0  0  0  0
    1.8829   -3.8069   -0.4995 H   0  0  0  0  0  0  0  0  0  0  0  0
    1.5352   -2.7306    0.8646 H   0  0  0  0  0  0  0  0  0  0  0  0
   -2.6853   -3.5313    0.4254 H   0  0  0  0  0  0  0  0  0  0  0  0
   -2.5828   -2.3722   -0.9182 H   0  0  0  0  0  0  0  0  0  0  0  0
    3.6921   -1.6351    0.9607 H   0  0  0  0  0  0  0  0  0  0  0  0
    4.5037   -0.3431    0.0928 H   0  0  0  0  0  0  0  0  0  0  0  0
   -0.5269   -3.5325   -1.2528 H   0  0  0  0  0  0  0  0  0  0  0  0
   -0.3546   -4.3046    0.3440 H   0  0  0  0  0  0  0  0  0  0  0  0
    0.6612    4.0487   -0.2453 H   0  0  0  0  0  0  0  0  0  0  0  0
    1.6006    3.0930   -1.3775 H   0  0  0  0  0  0  0  0  0  0  0  0
    1.7664   -0.2326    1.4262 H   0  0  0  0  0  0  0  0  0  0  0  0
    3.2248    0.7189    1.8015 H   0  0  0  0  0  0  0  0  0  0  0  0
  1 13  1  0  0  0  0
  1 15  1  0  0  0  0
  2 17  1  0  0  0  0
  2 18  1  0  0  0  0
  3 18  2  0  0  0  0
  4  5  1  0  0  0  0
  4  6  1  0  0  0  0
  4 19  1  0  0  0  0
  4 20  1  0  0  0  0
  5  7  1  0  0  0  0
  5 21  1  0  0  0  0
  5 22  1  0  0  0  0
  6  8  1  0  0  0  0
  6 23  1  0  0  0  0
  6 24  1  0  0  0  0
  7  9  1  0  0  0  0
  7 25  1  0  0  0  0
  7 26  1  0  0  0  0
  8 13  1  0  0  0  0
  8 27  1  0  0  0  0
  8 28  1  0  0  0  0
  9 16  1  0  0  0  0
  9 29  1  0  0  0  0
  9 30  1  0  0  0  0
 10 11  1  0  0  0  0
 10 12  1  0  0  0  0
 10 31  1  0  0  0  0
 10 32  1  0  0  0  0
 11 14  1  0  0  0  0
 11 33  1  0  0  0  0
 11 34  1  0  0  0  0
 12 15  1  0  0  0  0
 12 35  1  0  0  0  0
 12 36  1  0  0  0  0
 13 37  1  0  0  0  0
 13 38  1  0  0  0  0
 14 17  1  0  0  0  0
 14 39  1  0  0  0  0
 14 40  1  0  0  0  0
 15 41  1  0  0  0  0
 15 42  1  0  0  0  0
 16 18  1  0  0  0  0
 16 43  1  0  0  0  0
 16 44  1  0  0  0  0
 17 45  1  0  0  0  0
 17 46  1  0  0  0  0
M  END
> <PUBCHEM_COMPOUND_CID>
74408

> <PUBCHEM_CONFORMER_RMSD>
0.6

> <PUBCHEM_CONFORMER_DIVERSEORDER>
1
42
82
57
56
41
79
30
13
101
20
28
39
59
3
98
74
2
44
78
92
27
66
11
90
71
64
85
53
70
37
94
49
47
80
45
17
88
91
46
18
95
81
9
8
26
76
99
12
93
55
87
89
60
54
19
58
23
16
50
68
10
14
36
21
65
22
72
34
35
4
63
52
69
100
7
38
15
61
62
51
24
25
43
84
31
67
73
48
96
86
5
40
32
75
77
83
97
29
33
6

> <PUBCHEM_MMFF94_PARTIAL_CHARGES>
8
1 -0.56
13 0.28
15 0.28
16 0.06
17 0.28
18 0.66
2 -0.43
3 -0.57

> <PUBCHEM_EFFECTIVE_ROTOR_COUNT>
3.2

> <PUBCHEM_PHARMACOPHORE_FEATURES>
2
1 1 acceptor
1 3 acceptor

> <PUBCHEM_HEAVY_ATOM_COUNT>
18

> <PUBCHEM_ATOM_DEF_STEREO_COUNT>
0

> <PUBCHEM_ATOM_UDEF_STEREO_COUNT>
0

> <PUBCHEM_BOND_DEF_STEREO_COUNT>
0

> <PUBCHEM_BOND_UDEF_STEREO_COUNT>
0

> <PUBCHEM_ISOTOPIC_ATOM_COUNT>
0

> <PUBCHEM_COMPONENT_COUNT>
1

> <PUBCHEM_CACTVS_TAUTO_COUNT>
1

> <PUBCHEM_CONFORMER_ID>
000122A800000001

> <PUBCHEM_MMFF94_ENERGY>
15.0712

> <PUBCHEM_FEATURE_SELFOVERLAP>
10.149

> <PUBCHEM_SHAPE_FINGERPRINT>
10759866 29 17896048646328258782
11615756 56 18410851066545910335
12038231 1 18410010996701761743
12156800 1 15102580127959809999
12403259 226 18411706503661802639
12553582 1 17470446700161331413
12596599 1 17488458564355227183
13032168 30 16469513423661469090
13122387 1 18410577249421749543
13402501 40 18338514123497424055
14114207 22 14717004116360339033
14251705 54 18336834207248334961
14251711 518 15888560770851908310
14251740 79 17547893696556712230
14251745 187 18267858389599831552
14931854 50 16897081635303403351
17093844 170 18121209883916015896
17859628 37 18195816390577969854
19930381 70 17977662014234062487
20397935 3 18262819426651926884
20765182 40 18194395581796590562
20765182 5 15170503850494300121
21141583 151 17405709177346365190
23590187 86 18412261761322937475
238 59 18198596943999757439
2803657 2 16465023009182685955
3524813 1 18413672400418630571
44154327 71 17472707300062559691
5282274 181 18267597981601244675
568465 68 18129926936760785400
57091435 65 17757001364404232060
58250162 1 17256821511794801996

> <PUBCHEM_SHAPE_MULTIPOLES>
352.82
5.51
4.9
1.2
0.14
0.81
-0.13
0.75
0.23
-0.76
-0.11
0.12
-0.39
1.48

> <PUBCHEM_SHAPE_SELFOVERLAP>
667.633

> <PUBCHEM_SHAPE_VOLUME>
215.4

> <PUBCHEM_COORDINATE_TYPE>
2
5
10

$$$$
