74606
  -OEChem-11232108413D

 24 23  0     0  0  0  0  0  0999 V2000
   -1.4556    0.3145    0.1512 O   0  0  0  0  0  0  0  0  0  0  0  0
   -3.0949   -1.2078   -0.4251 O   0  0  0  0  0  0  0  0  0  0  0  0
    0.8996    0.0734   -0.1583 C   0  0  0  0  0  0  0  0  0  0  0  0
    3.2881    0.0983    0.7581 C   0  0  0  0  0  0  0  0  0  0  0  0
    1.9084   -0.4593    0.5578 C   0  0  0  0  0  0  0  0  0  0  0  0
   -0.4518   -0.5619   -0.3432 C   0  0  0  0  0  0  0  0  0  0  0  0
    1.0905    1.3840   -0.8777 C   0  0  0  0  0  0  0  0  0  0  0  0
    4.2454   -0.3915   -0.3165 C   0  0  0  0  0  0  0  0  0  0  0  0
   -2.7429   -0.1356    0.0478 C   0  0  0  0  0  0  0  0  0  0  0  0
   -3.6869    0.8859    0.6058 C   0  0  0  0  0  0  0  0  0  0  0  0
    3.2824    1.1925    0.7934 H   0  0  0  0  0  0  0  0  0  0  0  0
    3.6511   -0.2254    1.7412 H   0  0  0  0  0  0  0  0  0  0  0  0
    1.7322   -1.4199    1.0401 H   0  0  0  0  0  0  0  0  0  0  0  0
   -0.5067   -1.5152    0.1963 H   0  0  0  0  0  0  0  0  0  0  0  0
   -0.6208   -0.7568   -1.4092 H   0  0  0  0  0  0  0  0  0  0  0  0
    0.5115    2.1721   -0.3852 H   0  0  0  0  0  0  0  0  0  0  0  0
    0.7355    1.2963   -1.9108 H   0  0  0  0  0  0  0  0  0  0  0  0
    2.1279    1.7193   -0.9398 H   0  0  0  0  0  0  0  0  0  0  0  0
    3.9338   -0.0599   -1.3125 H   0  0  0  0  0  0  0  0  0  0  0  0
    4.3052   -1.4852   -0.3252 H   0  0  0  0  0  0  0  0  0  0  0  0
    5.2512   -0.0012   -0.1312 H   0  0  0  0  0  0  0  0  0  0  0  0
   -3.5996    1.8179    0.0417 H   0  0  0  0  0  0  0  0  0  0  0  0
   -3.4681    1.0536    1.6634 H   0  0  0  0  0  0  0  0  0  0  0  0
   -4.7133    0.5190    0.5159 H   0  0  0  0  0  0  0  0  0  0  0  0
  1  6  1  0  0  0  0
  1  9  1  0  0  0  0
  2  9  2  0  0  0  0
  3  5  2  3  0  0  0
  3  6  1  0  0  0  0
  3  7  1  0  0  0  0
  4  5  1  0  0  0  0
  4  8  1  0  0  0  0
  4 11  1  0  0  0  0
  4 12  1  0  0  0  0
  5 13  1  0  0  0  0
  6 14  1  0  0  0  0
  6 15  1  0  0  0  0
  7 16  1  0  0  0  0
  7 17  1  0  0  0  0
  7 18  1  0  0  0  0
  8 19  1  0  0  0  0
  8 20  1  0  0  0  0
  8 21  1  0  0  0  0
  9 10  1  0  0  0  0
 10 22  1  0  0  0  0
 10 23  1  0  0  0  0
 10 24  1  0  0  0  0
M  END
> <PUBCHEM_COMPOUND_CID>
74606

> <PUBCHEM_CONFORMER_RMSD>
0.6

> <PUBCHEM_CONFORMER_DIVERSEORDER>
4
9
49
24
46
39
28
41
29
27
52
47
8
14
36
51
25
21
13
45
26
30
17
35
40
44
18
38
37
19
20
32
16
3
2
50
33
1
34
11
5
42
31
10
6
48
7
22
43
12
15
23

> <PUBCHEM_MMFF94_PARTIAL_CHARGES>
10
1 -0.43
10 0.06
13 0.15
2 -0.57
3 -0.28
4 0.14
5 -0.29
6 0.42
7 0.14
9 0.66

> <PUBCHEM_EFFECTIVE_ROTOR_COUNT>
4

> <PUBCHEM_PHARMACOPHORE_FEATURES>
3
1 2 acceptor
1 7 hydrophobe
1 8 hydrophobe

> <PUBCHEM_HEAVY_ATOM_COUNT>
10

> <PUBCHEM_ATOM_DEF_STEREO_COUNT>
0

> <PUBCHEM_ATOM_UDEF_STEREO_COUNT>
0

> <PUBCHEM_BOND_DEF_STEREO_COUNT>
0

> <PUBCHEM_BOND_UDEF_STEREO_COUNT>
1

> <PUBCHEM_ISOTOPIC_ATOM_COUNT>
0

> <PUBCHEM_COMPONENT_COUNT>
1

> <PUBCHEM_CACTVS_TAUTO_COUNT>
1

> <PUBCHEM_CONFORMER_ID>
0001236E00000004

> <PUBCHEM_MMFF94_ENERGY>
6.3747

> <PUBCHEM_FEATURE_SELFOVERLAP>
15.223

> <PUBCHEM_SHAPE_FINGERPRINT>
10219947 1 18260828194093593654
11062470 55 14056719037165170898
124424 183 16630524012035507986
12932764 1 16515675684702772291
14325111 11 18060698403062134810
14993402 34 18260264170340456158
177051 138 18271241724317666111
18342897 14 17603871070144500485
190213 19 18412822495341993002
20279233 1 16200439074169698677
20281407 28 16370719331534731672
20645464 45 16200437983279699359
20645477 70 16154250742001695251
20711985 327 18261112984669149100
23402539 116 15410607052124631305
449060 50 17846207925879784368

> <PUBCHEM_SHAPE_MULTIPOLES>
194.06
7.38
1.08
0.85
0.18
0.2
0.03
-0.5
0.91
-0.3
-0.19
0.15
0.08
-0.48

> <PUBCHEM_SHAPE_SELFOVERLAP>
359.04

> <PUBCHEM_SHAPE_VOLUME>
122.8

> <PUBCHEM_COORDINATE_TYPE>
2
5
10

$$$$
