74667
  -OEChem-11232108423D

 17 17  0     0  0  0  0  0  0999 V2000
    4.4809   -0.1480    0.0173 N   0  0  0  0  0  0  0  0  0  0  0  0
   -0.4276   -0.2202    0.0770 C   0  0  0  0  0  0  0  0  0  0  0  0
   -0.9176    1.0859    0.0819 C   0  0  0  0  0  0  0  0  0  0  0  0
   -1.3118   -1.2965    0.0014 C   0  0  0  0  0  0  0  0  0  0  0  0
   -2.2915    1.3158    0.0113 C   0  0  0  0  0  0  0  0  0  0  0  0
   -2.6858   -1.0665   -0.0694 C   0  0  0  0  0  0  0  0  0  0  0  0
   -3.1756    0.2396   -0.0644 C   0  0  0  0  0  0  0  0  0  0  0  0
    1.0052   -0.4597    0.1510 C   0  0  0  0  0  0  0  0  0  0  0  0
    1.9714    0.4371   -0.1493 C   0  0  0  0  0  0  0  0  0  0  0  0
    3.3525    0.1124   -0.0567 C   0  0  0  0  0  0  0  0  0  0  0  0
   -0.2688    1.9535    0.1594 H   0  0  0  0  0  0  0  0  0  0  0  0
   -0.9488   -2.3214   -0.0050 H   0  0  0  0  0  0  0  0  0  0  0  0
   -2.6739    2.3324    0.0197 H   0  0  0  0  0  0  0  0  0  0  0  0
   -3.3746   -1.9042   -0.1283 H   0  0  0  0  0  0  0  0  0  0  0  0
   -4.2454    0.4186   -0.1184 H   0  0  0  0  0  0  0  0  0  0  0  0
    1.2996   -1.4592    0.4675 H   0  0  0  0  0  0  0  0  0  0  0  0
    1.7388    1.4380   -0.4942 H   0  0  0  0  0  0  0  0  0  0  0  0
  1 10  3  0  0  0  0
  2  3  2  0  0  0  0
  2  4  1  0  0  0  0
  2  8  1  0  0  0  0
  3  5  1  0  0  0  0
  3 11  1  0  0  0  0
  4  6  2  0  0  0  0
  4 12  1  0  0  0  0
  5  7  2  0  0  0  0
  5 13  1  0  0  0  0
  6  7  1  0  0  0  0
  6 14  1  0  0  0  0
  7 15  1  0  0  0  0
  8  9  2  3  0  0  0
  8 16  1  0  0  0  0
  9 10  1  0  0  0  0
  9 17  1  0  0  0  0
M  END
> <PUBCHEM_COMPOUND_CID>
74667

> <PUBCHEM_CONFORMER_RMSD>
0.4

> <PUBCHEM_CONFORMER_DIVERSEORDER>
1

> <PUBCHEM_MMFF94_PARTIAL_CHARGES>
17
1 -0.56
10 0.49
11 0.15
12 0.15
13 0.15
14 0.15
15 0.15
16 0.15
17 0.15
2 0.03
3 -0.15
4 -0.15
5 -0.15
6 -0.15
7 -0.15
8 -0.18
9 -0.09

> <PUBCHEM_EFFECTIVE_ROTOR_COUNT>
1

> <PUBCHEM_PHARMACOPHORE_FEATURES>
2
1 1 acceptor
6 2 3 4 5 6 7 rings

> <PUBCHEM_HEAVY_ATOM_COUNT>
10

> <PUBCHEM_ATOM_DEF_STEREO_COUNT>
0

> <PUBCHEM_ATOM_UDEF_STEREO_COUNT>
0

> <PUBCHEM_BOND_DEF_STEREO_COUNT>
0

> <PUBCHEM_BOND_UDEF_STEREO_COUNT>
1

> <PUBCHEM_ISOTOPIC_ATOM_COUNT>
0

> <PUBCHEM_COMPONENT_COUNT>
1

> <PUBCHEM_CACTVS_TAUTO_COUNT>
1

> <PUBCHEM_CONFORMER_ID>
000123AB00000001

> <PUBCHEM_MMFF94_ENERGY>
22.3698

> <PUBCHEM_FEATURE_SELFOVERLAP>
10.148

> <PUBCHEM_SHAPE_FINGERPRINT>
12932764 1 17023170652585996428
13024252 1 16008749113255717817
13380535 76 18410856533912723054
14144814 61 18334292050639598938
14325111 11 18410575072147409666
15219456 202 17988090980106308359
15775835 57 18188209801532804121
20201158 50 18060140933534404102
20279233 1 17703795812342662718
20645464 45 17988649588100766847
20871998 184 18201162164857510863
23402539 116 18271799129900545997
23552423 10 18116431638272797749
369184 2 15719389542719935513
6333449 129 18342737416526874909

> <PUBCHEM_SHAPE_MULTIPOLES>
200.81
6.4
1.25
0.62
6.74
0.02
0
0.01
-0.18
-0.97
0
-0.03
0
-0.05

> <PUBCHEM_SHAPE_SELFOVERLAP>
414.19

> <PUBCHEM_SHAPE_VOLUME>
112.8

> <PUBCHEM_COORDINATE_TYPE>
2
5
10

$$$$
