74977
  -OEChem-11232109053D

 30 30  0     0  0  0  0  0  0999 V2000
    0.6891   -0.1810   -0.0001 O   0  0  0  0  0  0  0  0  0  0  0  0
    2.3015   -1.8219    0.0018 O   0  0  0  0  0  0  0  0  0  0  0  0
    2.9641    0.5304   -0.0005 C   0  0  0  0  0  0  0  0  0  0  0  0
    2.7416    1.3892    1.2515 C   0  0  0  0  0  0  0  0  0  0  0  0
    4.4024   -0.0120    0.0153 C   0  0  0  0  0  0  0  0  0  0  0  0
    2.7626    1.3704   -1.2689 C   0  0  0  0  0  0  0  0  0  0  0  0
    1.9761   -0.6407    0.0003 C   0  0  0  0  0  0  0  0  0  0  0  0
   -0.3290   -1.1869    0.0013 C   0  0  0  0  0  0  0  0  0  0  0  0
   -1.6742   -0.5222    0.0006 C   0  0  0  0  0  0  0  0  0  0  0  0
   -2.2914   -0.2160    1.2082 C   0  0  0  0  0  0  0  0  0  0  0  0
   -2.2914   -0.2189   -1.2077 C   0  0  0  0  0  0  0  0  0  0  0  0
   -3.5421    0.4018    1.2075 C   0  0  0  0  0  0  0  0  0  0  0  0
   -3.5421    0.3988   -1.2084 C   0  0  0  0  0  0  0  0  0  0  0  0
   -4.1674    0.7092   -0.0008 C   0  0  0  0  0  0  0  0  0  0  0  0
    2.8280    0.7862    2.1628 H   0  0  0  0  0  0  0  0  0  0  0  0
    3.4754    2.2007    1.3116 H   0  0  0  0  0  0  0  0  0  0  0  0
    1.7449    1.8446    1.2573 H   0  0  0  0  0  0  0  0  0  0  0  0
    4.5853   -0.6269    0.9042 H   0  0  0  0  0  0  0  0  0  0  0  0
    5.1351    0.8028    0.0160 H   0  0  0  0  0  0  0  0  0  0  0  0
    4.6004   -0.6388   -0.8619 H   0  0  0  0  0  0  0  0  0  0  0  0
    1.7645    1.8219   -1.2995 H   0  0  0  0  0  0  0  0  0  0  0  0
    3.4949    2.1833   -1.3272 H   0  0  0  0  0  0  0  0  0  0  0  0
    2.8674    0.7546   -2.1695 H   0  0  0  0  0  0  0  0  0  0  0  0
   -0.2205   -1.8222    0.8893 H   0  0  0  0  0  0  0  0  0  0  0  0
   -0.2207   -1.8244   -0.8851 H   0  0  0  0  0  0  0  0  0  0  0  0
   -1.8124   -0.4489    2.1552 H   0  0  0  0  0  0  0  0  0  0  0  0
   -1.8123   -0.4541   -2.1542 H   0  0  0  0  0  0  0  0  0  0  0  0
   -4.0286    0.6440    2.1477 H   0  0  0  0  0  0  0  0  0  0  0  0
   -4.0288    0.6389   -2.1492 H   0  0  0  0  0  0  0  0  0  0  0  0
   -5.1410    1.1905   -0.0014 H   0  0  0  0  0  0  0  0  0  0  0  0
  1  7  1  0  0  0  0
  1  8  1  0  0  0  0
  2  7  2  0  0  0  0
  3  4  1  0  0  0  0
  3  5  1  0  0  0  0
  3  6  1  0  0  0  0
  3  7  1  0  0  0  0
  4 15  1  0  0  0  0
  4 16  1  0  0  0  0
  4 17  1  0  0  0  0
  5 18  1  0  0  0  0
  5 19  1  0  0  0  0
  5 20  1  0  0  0  0
  6 21  1  0  0  0  0
  6 22  1  0  0  0  0
  6 23  1  0  0  0  0
  8  9  1  0  0  0  0
  8 24  1  0  0  0  0
  8 25  1  0  0  0  0
  9 10  2  0  0  0  0
  9 11  1  0  0  0  0
 10 12  1  0  0  0  0
 10 26  1  0  0  0  0
 11 13  2  0  0  0  0
 11 27  1  0  0  0  0
 12 14  2  0  0  0  0
 12 28  1  0  0  0  0
 13 14  1  0  0  0  0
 13 29  1  0  0  0  0
 14 30  1  0  0  0  0
M  END
> <PUBCHEM_COMPOUND_CID>
74977

> <PUBCHEM_CONFORMER_RMSD>
0.6

> <PUBCHEM_CONFORMER_DIVERSEORDER>
1
14
8
6
13
11
7
12
3
2
10
4
5
9

> <PUBCHEM_MMFF94_PARTIAL_CHARGES>
16
1 -0.43
10 -0.15
11 -0.15
12 -0.15
13 -0.15
14 -0.15
2 -0.57
26 0.15
27 0.15
28 0.15
29 0.15
3 0.06
30 0.15
7 0.66
8 0.42
9 -0.14

> <PUBCHEM_EFFECTIVE_ROTOR_COUNT>
4

> <PUBCHEM_PHARMACOPHORE_FEATURES>
3
1 2 acceptor
4 3 4 5 6 hydrophobe
6 9 10 11 12 13 14 rings

> <PUBCHEM_HEAVY_ATOM_COUNT>
14

> <PUBCHEM_ATOM_DEF_STEREO_COUNT>
0

> <PUBCHEM_ATOM_UDEF_STEREO_COUNT>
0

> <PUBCHEM_BOND_DEF_STEREO_COUNT>
0

> <PUBCHEM_BOND_UDEF_STEREO_COUNT>
0

> <PUBCHEM_ISOTOPIC_ATOM_COUNT>
0

> <PUBCHEM_COMPONENT_COUNT>
1

> <PUBCHEM_CACTVS_TAUTO_COUNT>
1

> <PUBCHEM_CONFORMER_ID>
000124E100000001

> <PUBCHEM_MMFF94_ENERGY>
32.2247

> <PUBCHEM_FEATURE_SELFOVERLAP>
15.223

> <PUBCHEM_SHAPE_FINGERPRINT>
10366900 7 16153427280922693241
10799339 124 13984649326897978333
11543360 7 15697713813144317824
12162725 195 17132115770613727552
12251169 10 14707209924393673335
13705890 14 14045748131734070564
14123260 362 18273223010111490665
14144814 61 17917993867003706203
14252887 29 7853580127771837260
15239191 94 8718831993808201085
15653759 3 16298384673298700725
15775835 57 18131069333372780293
17802600 8 18131347492698380088
18186145 218 18341615901560264463
19107657 47 18260543407385829136
19107657 9 18339371849899255636
1986462 14 14476961186121147989
20279233 1 17603305934073811619
20300324 65 16415474974045050081
20361792 2 8718828678193727459
20645464 45 17458064859192162899
20645476 183 17203602692594995415
20645477 70 18263919951808322182
20871999 31 15697709377155238221
21119208 17 16845574214167746781
22169311 14 16370720439557276600
22485316 2 10807935955371598389
22646028 28 11746935382387937337
22854114 59 18040157305794939579
23402539 116 16559030472264018008
23402655 69 17632861901649931848
23559900 14 16371287710221820210
3082319 5 17203325615495879639
42 15 14707202201973864520
474 4 18129369578780904544
4921388 177 16415201217235366599
74978 22 17846214505184184014
90316 7 14129334053744802503
93112 12 16128379293539879108
9971528 1 17703790302374316904

> <PUBCHEM_SHAPE_MULTIPOLES>
276.37
8.58
1.31
1.27
0.03
0.13
0.01
-2.27
0
0.94
0
-0.59
-0.36
-0.01

> <PUBCHEM_SHAPE_SELFOVERLAP>
561.922

> <PUBCHEM_SHAPE_VOLUME>
161.9

> <PUBCHEM_COORDINATE_TYPE>
2
5
10

$$$$
