75033
  -OEChem-11232109033D

 18 18  0     0  0  0  0  0  0999 V2000
    1.0629   -0.2089    0.4938 O   0  0  0  0  0  0  0  0  0  0  0  0
    3.6365   -0.7994   -0.1732 O   0  0  0  0  0  0  0  0  0  0  0  0
   -0.2726   -0.1230    0.2475 C   0  0  0  0  0  0  0  0  0  0  0  0
   -0.8849    1.1265    0.1488 C   0  0  0  0  0  0  0  0  0  0  0  0
   -1.0296   -1.2846    0.0943 C   0  0  0  0  0  0  0  0  0  0  0  0
   -2.2540    1.2146   -0.1030 C   0  0  0  0  0  0  0  0  0  0  0  0
   -2.3988   -1.1965   -0.1575 C   0  0  0  0  0  0  0  0  0  0  0  0
   -3.0109    0.0530   -0.2561 C   0  0  0  0  0  0  0  0  0  0  0  0
    1.8822    0.8553    0.0120 C   0  0  0  0  0  0  0  0  0  0  0  0
    3.2693    0.3631   -0.3066 C   0  0  0  0  0  0  0  0  0  0  0  0
   -0.3370    2.0537    0.2885 H   0  0  0  0  0  0  0  0  0  0  0  0
   -0.5584   -2.2607    0.1702 H   0  0  0  0  0  0  0  0  0  0  0  0
   -2.7323    2.1871   -0.1736 H   0  0  0  0  0  0  0  0  0  0  0  0
   -2.9884   -2.1009   -0.2765 H   0  0  0  0  0  0  0  0  0  0  0  0
    1.9667    1.6308    0.7800 H   0  0  0  0  0  0  0  0  0  0  0  0
    1.4980    1.2810   -0.9232 H   0  0  0  0  0  0  0  0  0  0  0  0
   -4.0772    0.1215   -0.4507 H   0  0  0  0  0  0  0  0  0  0  0  0
    3.9663    1.1330   -0.6796 H   0  0  0  0  0  0  0  0  0  0  0  0
  1  3  1  0  0  0  0
  1  9  1  0  0  0  0
  2 10  2  0  0  0  0
  3  4  2  0  0  0  0
  3  5  1  0  0  0  0
  4  6  1  0  0  0  0
  4 11  1  0  0  0  0
  5  7  2  0  0  0  0
  5 12  1  0  0  0  0
  6  8  2  0  0  0  0
  6 13  1  0  0  0  0
  7  8  1  0  0  0  0
  7 14  1  0  0  0  0
  8 17  1  0  0  0  0
  9 10  1  0  0  0  0
  9 15  1  0  0  0  0
  9 16  1  0  0  0  0
 10 18  1  0  0  0  0
M  END
> <PUBCHEM_COMPOUND_CID>
75033

> <PUBCHEM_CONFORMER_RMSD>
0.6

> <PUBCHEM_CONFORMER_DIVERSEORDER>
1
4
5
3
2
6

> <PUBCHEM_MMFF94_PARTIAL_CHARGES>
16
1 -0.36
10 0.45
11 0.15
12 0.15
13 0.15
14 0.15
17 0.15
18 0.06
2 -0.57
3 0.08
4 -0.15
5 -0.15
6 -0.15
7 -0.15
8 -0.15
9 0.34

> <PUBCHEM_EFFECTIVE_ROTOR_COUNT>
3

> <PUBCHEM_PHARMACOPHORE_FEATURES>
3
1 1 acceptor
1 2 acceptor
6 3 4 5 6 7 8 rings

> <PUBCHEM_HEAVY_ATOM_COUNT>
10

> <PUBCHEM_ATOM_DEF_STEREO_COUNT>
0

> <PUBCHEM_ATOM_UDEF_STEREO_COUNT>
0

> <PUBCHEM_BOND_DEF_STEREO_COUNT>
0

> <PUBCHEM_BOND_UDEF_STEREO_COUNT>
0

> <PUBCHEM_ISOTOPIC_ATOM_COUNT>
0

> <PUBCHEM_COMPONENT_COUNT>
1

> <PUBCHEM_CACTVS_TAUTO_COUNT>
2

> <PUBCHEM_CONFORMER_ID>
0001251900000001

> <PUBCHEM_MMFF94_ENERGY>
26.9111

> <PUBCHEM_FEATURE_SELFOVERLAP>
15.229

> <PUBCHEM_SHAPE_FINGERPRINT>
11062470 55 12319735860324108936
12032990 46 18337394967069349603
12716758 59 18411694409069963147
12897270 3 18410290336937158444
12932764 1 17385994079245985544
13024252 1 17458064880714322771
14325111 11 18410293614239960800
20201158 50 18131636664361798230
20653085 51 18113624490450319929
20871998 184 18200599232046996463
23402539 116 18201992197241301693
23552423 10 18189051048197530546
2748010 2 17977652436266951833
3248919 1 17530966929678581992
369184 2 18130788992309659777

> <PUBCHEM_SHAPE_MULTIPOLES>
194.06
5.49
1.36
0.65
4.31
0.03
0
0.41
0.8
-0.58
0.01
-0.01
-0.01
0

> <PUBCHEM_SHAPE_SELFOVERLAP>
395.866

> <PUBCHEM_SHAPE_VOLUME>
111.8

> <PUBCHEM_COORDINATE_TYPE>
2
5
10

$$$$
