75153
  -OEChem-11232109423D

 22 22  0     0  0  0  0  0  0999 V2000
    1.7011    0.0554    0.7695 O   0  0  0  0  0  0  0  0  0  0  0  0
    2.1701   -0.0012   -1.5109 O   0  0  0  0  0  0  0  0  0  0  0  0
   -0.6228   -0.3279    0.2685 C   0  0  0  0  0  0  0  0  0  0  0  0
   -1.5210   -1.0494   -0.5179 C   0  0  0  0  0  0  0  0  0  0  0  0
   -0.9847    0.9214    0.7728 C   0  0  0  0  0  0  0  0  0  0  0  0
    0.6912   -0.8781    0.5626 C   0  0  0  0  0  0  0  0  0  0  0  0
   -2.7810   -0.5218   -0.8003 C   0  0  0  0  0  0  0  0  0  0  0  0
   -2.2449    1.4489    0.4905 C   0  0  0  0  0  0  0  0  0  0  0  0
   -3.1429    0.7272   -0.2960 C   0  0  0  0  0  0  0  0  0  0  0  0
    0.9551   -2.2013    0.6572 C   0  0  0  0  0  0  0  0  0  0  0  0
    2.3656    0.4058   -0.3729 C   0  0  0  0  0  0  0  0  0  0  0  0
    3.4140    1.4211   -0.0231 C   0  0  0  0  0  0  0  0  0  0  0  0
   -1.2681   -2.0165   -0.9444 H   0  0  0  0  0  0  0  0  0  0  0  0
   -0.3085    1.5024    1.3950 H   0  0  0  0  0  0  0  0  0  0  0  0
   -3.4790   -1.0813   -1.4163 H   0  0  0  0  0  0  0  0  0  0  0  0
   -2.5277    2.4208    0.8842 H   0  0  0  0  0  0  0  0  0  0  0  0
   -4.1236    1.1384   -0.5164 H   0  0  0  0  0  0  0  0  0  0  0  0
    1.9606   -2.5406    0.8871 H   0  0  0  0  0  0  0  0  0  0  0  0
    0.1975   -2.9666    0.5319 H   0  0  0  0  0  0  0  0  0  0  0  0
    4.1166    0.9962    0.6985 H   0  0  0  0  0  0  0  0  0  0  0  0
    2.9402    2.3188    0.3820 H   0  0  0  0  0  0  0  0  0  0  0  0
    3.9679    1.6957   -0.9255 H   0  0  0  0  0  0  0  0  0  0  0  0
  1  6  1  0  0  0  0
  1 11  1  0  0  0  0
  2 11  2  0  0  0  0
  3  4  2  0  0  0  0
  3  5  1  0  0  0  0
  3  6  1  0  0  0  0
  4  7  1  0  0  0  0
  4 13  1  0  0  0  0
  5  8  2  0  0  0  0
  5 14  1  0  0  0  0
  6 10  2  0  0  0  0
  7  9  2  0  0  0  0
  7 15  1  0  0  0  0
  8  9  1  0  0  0  0
  8 16  1  0  0  0  0
  9 17  1  0  0  0  0
 10 18  1  0  0  0  0
 10 19  1  0  0  0  0
 11 12  1  0  0  0  0
 12 20  1  0  0  0  0
 12 21  1  0  0  0  0
 12 22  1  0  0  0  0
M  END
> <PUBCHEM_COMPOUND_CID>
75153

> <PUBCHEM_CONFORMER_RMSD>
0.6

> <PUBCHEM_CONFORMER_DIVERSEORDER>
1
13
15
17
4
14
12
6
9
3
11
10
5
8
16
7
2

> <PUBCHEM_MMFF94_PARTIAL_CHARGES>
19
1 -0.23
10 -0.3
11 0.66
12 0.06
13 0.15
14 0.15
15 0.15
16 0.15
17 0.15
18 0.15
19 0.15
2 -0.57
3 0.03
4 -0.15
5 -0.15
6 0.05
7 -0.15
8 -0.15
9 -0.15

> <PUBCHEM_EFFECTIVE_ROTOR_COUNT>
3

> <PUBCHEM_PHARMACOPHORE_FEATURES>
2
1 2 acceptor
6 3 4 5 7 8 9 rings

> <PUBCHEM_HEAVY_ATOM_COUNT>
12

> <PUBCHEM_ATOM_DEF_STEREO_COUNT>
0

> <PUBCHEM_ATOM_UDEF_STEREO_COUNT>
0

> <PUBCHEM_BOND_DEF_STEREO_COUNT>
0

> <PUBCHEM_BOND_UDEF_STEREO_COUNT>
0

> <PUBCHEM_ISOTOPIC_ATOM_COUNT>
0

> <PUBCHEM_COMPONENT_COUNT>
1

> <PUBCHEM_CACTVS_TAUTO_COUNT>
1

> <PUBCHEM_CONFORMER_ID>
0001259100000001

> <PUBCHEM_MMFF94_ENERGY>
35.2158

> <PUBCHEM_FEATURE_SELFOVERLAP>
10.148

> <PUBCHEM_SHAPE_FINGERPRINT>
11031198 65 18187656764527237377
12202030 40 15051434051250234647
12326174 3 17241318045840465186
12897270 3 17560803264003334196
12932764 1 18060128822048291915
15775835 57 18408041797040866564
16945 1 18341038692731989411
18186145 218 18410580591175318332
19837323 101 18337123365884725562
20361792 2 11959733746136116488
20645476 183 18412258403127958839
20653085 51 18271261442422662936
20871999 31 17702653497228992783
21028194 46 17967817166964153194
21524375 3 18187643643629020970
22802520 49 18057908907771372174
228727 97 18272369793319883585
23402539 116 18270952566018814556
23552423 10 18194393403799525275
23559900 14 18272932757049834744
2748010 2 17621015982842756195
305870 269 18259981553023653626
353137 74 18342738533150001561
369184 2 14129060335246717569
7364860 26 18269270162746498522
8030462 33 18342164536719951923
81228 2 17538305207563590082

> <PUBCHEM_SHAPE_MULTIPOLES>
235.22
5
1.72
1.02
0.83
0.48
0.17
-2.21
1.12
0.33
-0.35
0.17
0.06
-0.53

> <PUBCHEM_SHAPE_SELFOVERLAP>
487.18

> <PUBCHEM_SHAPE_VOLUME>
133.5

> <PUBCHEM_COORDINATE_TYPE>
2
5
10

$$$$
