75187
  -OEChem-11232109483D

 24 24  0     0  0  0  0  0  0999 V2000
    1.9450   -0.0002   -0.3447 O   0  0  0  0  0  0  0  0  0  0  0  0
    3.8797    0.0013    0.9177 O   0  0  0  0  0  0  0  0  0  0  0  0
   -0.2874    0.0010    0.4756 C   0  0  0  0  0  0  0  0  0  0  0  0
   -2.9924   -0.0005   -0.2069 C   0  0  0  0  0  0  0  0  0  0  0  0
    1.1587    0.0014    0.8405 C   0  0  0  0  0  0  0  0  0  0  0  0
   -0.9641    1.2086    0.3033 C   0  0  0  0  0  0  0  0  0  0  0  0
   -0.9634   -1.2075    0.3066 C   0  0  0  0  0  0  0  0  0  0  0  0
   -2.3166    1.2079   -0.0379 C   0  0  0  0  0  0  0  0  0  0  0  0
   -2.3159   -1.2082   -0.0347 C   0  0  0  0  0  0  0  0  0  0  0  0
   -4.4381   -0.0012   -0.5726 C   0  0  0  0  0  0  0  0  0  0  0  0
    3.2996   -0.0001   -0.1596 C   0  0  0  0  0  0  0  0  0  0  0  0
    3.9950   -0.0025   -1.4872 C   0  0  0  0  0  0  0  0  0  0  0  0
    1.3964    0.8876    1.4427 H   0  0  0  0  0  0  0  0  0  0  0  0
    1.3964   -0.8830    1.4452 H   0  0  0  0  0  0  0  0  0  0  0  0
   -0.4479    2.1566    0.4297 H   0  0  0  0  0  0  0  0  0  0  0  0
   -0.4468   -2.1549    0.4355 H   0  0  0  0  0  0  0  0  0  0  0  0
   -2.8321    2.1552   -0.1717 H   0  0  0  0  0  0  0  0  0  0  0  0
   -2.8311   -2.1560   -0.1660 H   0  0  0  0  0  0  0  0  0  0  0  0
   -4.9479   -0.8819   -0.1675 H   0  0  0  0  0  0  0  0  0  0  0  0
   -4.9488    0.8788   -0.1670 H   0  0  0  0  0  0  0  0  0  0  0  0
   -4.5502   -0.0010   -1.6614 H   0  0  0  0  0  0  0  0  0  0  0  0
    3.7236    0.8946   -2.0491 H   0  0  0  0  0  0  0  0  0  0  0  0
    3.7251   -0.9028   -2.0450 H   0  0  0  0  0  0  0  0  0  0  0  0
    5.0774   -0.0012   -1.3299 H   0  0  0  0  0  0  0  0  0  0  0  0
  1  5  1  0  0  0  0
  1 11  1  0  0  0  0
  2 11  2  0  0  0  0
  3  5  1  0  0  0  0
  3  6  2  0  0  0  0
  3  7  1  0  0  0  0
  4  8  2  0  0  0  0
  4  9  1  0  0  0  0
  4 10  1  0  0  0  0
  5 13  1  0  0  0  0
  5 14  1  0  0  0  0
  6  8  1  0  0  0  0
  6 15  1  0  0  0  0
  7  9  2  0  0  0  0
  7 16  1  0  0  0  0
  8 17  1  0  0  0  0
  9 18  1  0  0  0  0
 10 19  1  0  0  0  0
 10 20  1  0  0  0  0
 10 21  1  0  0  0  0
 11 12  1  0  0  0  0
 12 22  1  0  0  0  0
 12 23  1  0  0  0  0
 12 24  1  0  0  0  0
M  END
> <PUBCHEM_COMPOUND_CID>
75187

> <PUBCHEM_CONFORMER_RMSD>
0.6

> <PUBCHEM_CONFORMER_DIVERSEORDER>
1
5
6
3
2
4

> <PUBCHEM_MMFF94_PARTIAL_CHARGES>
16
1 -0.43
10 0.14
11 0.66
12 0.06
15 0.15
16 0.15
17 0.15
18 0.15
2 -0.57
3 -0.14
4 -0.14
5 0.42
6 -0.15
7 -0.15
8 -0.15
9 -0.15

> <PUBCHEM_EFFECTIVE_ROTOR_COUNT>
3

> <PUBCHEM_PHARMACOPHORE_FEATURES>
2
1 2 acceptor
6 3 4 6 7 8 9 rings

> <PUBCHEM_HEAVY_ATOM_COUNT>
12

> <PUBCHEM_ATOM_DEF_STEREO_COUNT>
0

> <PUBCHEM_ATOM_UDEF_STEREO_COUNT>
0

> <PUBCHEM_BOND_DEF_STEREO_COUNT>
0

> <PUBCHEM_BOND_UDEF_STEREO_COUNT>
0

> <PUBCHEM_ISOTOPIC_ATOM_COUNT>
0

> <PUBCHEM_COMPONENT_COUNT>
1

> <PUBCHEM_CACTVS_TAUTO_COUNT>
1

> <PUBCHEM_CONFORMER_ID>
000125B300000001

> <PUBCHEM_MMFF94_ENERGY>
23.3397

> <PUBCHEM_FEATURE_SELFOVERLAP>
10.148

> <PUBCHEM_SHAPE_FINGERPRINT>
10465860 71 18339372932494868916
11062470 55 15913608380298595323
12032990 46 18271526506920218171
13024252 1 17603588538953721987
13296908 3 16988847151010001664
14911166 2 18411128152645806117
14943859 89 16515402980170573353
14993402 34 18113618988823807453
15775835 57 17095527309412539182
18186145 218 18412263938961046880
200 152 15841552950945341990
20201158 50 17917714599571678862
20279233 1 17846499244752810006
20281407 28 17846502555803330102
20645476 183 17821729468066424131
20645477 70 16486979458094752644
21119208 17 18114181934228969366
21293036 1 18408881837130869741
22485316 2 16056875836192881317
22926399 37 16877667876356388541
23048698 100 16732984215278645704
23402539 116 18341319033584243381
23557571 272 18130785638378519520
23559900 14 18342455963573542560
2748010 2 18049710017551853339
4175511 318 18187357731961727855

> <PUBCHEM_SHAPE_MULTIPOLES>
235.22
7.84
1.11
0.99
3.74
0
-0.16
0
-2.38
-0.81
0.06
0.87
0
0

> <PUBCHEM_SHAPE_SELFOVERLAP>
479.351

> <PUBCHEM_SHAPE_VOLUME>
137

> <PUBCHEM_COORDINATE_TYPE>
2
5
10

$$$$
