75263
  -OEChem-11232109453D

 13 12  0     0  0  0  0  0  0999 V2000
   -2.7711    0.0000   -0.3835 S   0  0  0  0  0  0  0  0  0  0  0  0
   -0.2184    0.0000    0.6820 N   0  0  0  0  0  0  0  0  0  0  0  0
    0.8736    0.0000   -0.2975 C   0  0  0  0  0  0  0  0  0  0  0  0
    1.7060    1.2595   -0.1091 C   0  0  0  0  0  0  0  0  0  0  0  0
    1.7060   -1.2595   -0.1091 C   0  0  0  0  0  0  0  0  0  0  0  0
   -1.2960    0.0000    0.2173 C   0  0  0  0  0  0  0  0  0  0  0  0
    0.5013   -0.0001   -1.3330 H   0  0  0  0  0  0  0  0  0  0  0  0
    2.5379    1.2897   -0.8203 H   0  0  0  0  0  0  0  0  0  0  0  0
    1.0951    2.1556   -0.2632 H   0  0  0  0  0  0  0  0  0  0  0  0
    2.1207    1.3139    0.9036 H   0  0  0  0  0  0  0  0  0  0  0  0
    2.5380   -1.2896   -0.8203 H   0  0  0  0  0  0  0  0  0  0  0  0
    1.0951   -2.1556   -0.2632 H   0  0  0  0  0  0  0  0  0  0  0  0
    2.1207   -1.3139    0.9036 H   0  0  0  0  0  0  0  0  0  0  0  0
  1  6  2  0  0  0  0
  2  3  1  0  0  0  0
  2  6  2  0  0  0  0
  3  4  1  0  0  0  0
  3  5  1  0  0  0  0
  3  7  1  0  0  0  0
  4  8  1  0  0  0  0
  4  9  1  0  0  0  0
  4 10  1  0  0  0  0
  5 11  1  0  0  0  0
  5 12  1  0  0  0  0
  5 13  1  0  0  0  0
M  END
> <PUBCHEM_COMPOUND_CID>
75263

> <PUBCHEM_CONFORMER_RMSD>
0.4

> <PUBCHEM_CONFORMER_DIVERSEORDER>
1
2
6
4
3
5

> <PUBCHEM_MMFF94_PARTIAL_CHARGES>
4
1 -0.27
2 -0.55
3 0.25
6 0.57

> <PUBCHEM_EFFECTIVE_ROTOR_COUNT>
1

> <PUBCHEM_PHARMACOPHORE_FEATURES>
3
1 1 acceptor
1 2 acceptor
3 3 4 5 hydrophobe

> <PUBCHEM_HEAVY_ATOM_COUNT>
6

> <PUBCHEM_ATOM_DEF_STEREO_COUNT>
0

> <PUBCHEM_ATOM_UDEF_STEREO_COUNT>
0

> <PUBCHEM_BOND_DEF_STEREO_COUNT>
0

> <PUBCHEM_BOND_UDEF_STEREO_COUNT>
0

> <PUBCHEM_ISOTOPIC_ATOM_COUNT>
0

> <PUBCHEM_COMPONENT_COUNT>
1

> <PUBCHEM_CACTVS_TAUTO_COUNT>
1

> <PUBCHEM_CONFORMER_ID>
000125FF00000001

> <PUBCHEM_MMFF94_ENERGY>
3.4074

> <PUBCHEM_FEATURE_SELFOVERLAP>
15.228

> <PUBCHEM_SHAPE_FINGERPRINT>
14390081 3 17603857906391446461
20096714 4 18338524160883649368
21040471 1 18193279821742459660
23552449 11 18262507118131527474
24536 1 18408045121419133977
29004967 10 18410014312273998522
5460574 1 8790890683310436493

> <PUBCHEM_SHAPE_MULTIPOLES>
122.35
3.54
1.15
0.73
2.28
0
0
0
-0.53
-0.91
-0.06
0.1
0
0

> <PUBCHEM_SHAPE_SELFOVERLAP>
211.287

> <PUBCHEM_SHAPE_VOLUME>
82.9

> <PUBCHEM_COORDINATE_TYPE>
2
5
10

$$$$
