75320
  -OEChem-11232108563D

 47 46  0     0  0  0  0  0  0999 V2000
   -3.1333    0.5989   -0.0562 O   0  0  0  0  0  0  0  0  0  0  0  0
   -2.0472   -1.4387   -0.0141 O   0  0  0  0  0  0  0  0  0  0  0  0
    2.9773   -0.3501   -0.0296 C   0  0  0  0  0  0  0  0  0  0  0  0
    4.2648    0.4769   -0.0569 C   0  0  0  0  0  0  0  0  0  0  0  0
    1.7389    0.5471   -0.0641 C   0  0  0  0  0  0  0  0  0  0  0  0
    5.5017   -0.4218    0.0101 C   0  0  0  0  0  0  0  0  0  0  0  0
    0.4530   -0.2772   -0.0026 C   0  0  0  0  0  0  0  0  0  0  0  0
    6.8204    0.3565    0.0171 C   0  0  0  0  0  0  0  0  0  0  0  0
   -0.7811    0.6143   -0.0705 C   0  0  0  0  0  0  0  0  0  0  0  0
   -6.9211    0.3847    0.0305 C   0  0  0  0  0  0  0  0  0  0  0  0
    8.0554   -0.5403    0.1093 C   0  0  0  0  0  0  0  0  0  0  0  0
   -5.5048    0.9791   -0.0298 C   0  0  0  0  0  0  0  0  0  0  0  0
   -4.3983   -0.0690   -0.0168 C   0  0  0  0  0  0  0  0  0  0  0  0
   -2.0392   -0.2151   -0.0498 C   0  0  0  0  0  0  0  0  0  0  0  0
   -7.1403   -0.5577   -1.1554 C   0  0  0  0  0  0  0  0  0  0  0  0
   -7.1844   -0.3619    1.3390 C   0  0  0  0  0  0  0  0  0  0  0  0
    9.3382    0.2743    0.0398 C   0  0  0  0  0  0  0  0  0  0  0  0
    2.9610   -1.0345   -0.8865 H   0  0  0  0  0  0  0  0  0  0  0  0
    2.9572   -0.9666    0.8774 H   0  0  0  0  0  0  0  0  0  0  0  0
    4.2737    1.1730    0.7905 H   0  0  0  0  0  0  0  0  0  0  0  0
    4.2984    1.0801   -0.9721 H   0  0  0  0  0  0  0  0  0  0  0  0
    1.7660    1.2459    0.7808 H   0  0  0  0  0  0  0  0  0  0  0  0
    1.7487    1.1483   -0.9814 H   0  0  0  0  0  0  0  0  0  0  0  0
    5.4958   -1.1100   -0.8442 H   0  0  0  0  0  0  0  0  0  0  0  0
    5.4497   -1.0403    0.9149 H   0  0  0  0  0  0  0  0  0  0  0  0
    0.4367   -0.8667    0.9228 H   0  0  0  0  0  0  0  0  0  0  0  0
    0.4403   -0.9938   -0.8337 H   0  0  0  0  0  0  0  0  0  0  0  0
    6.8203    1.0576    0.8610 H   0  0  0  0  0  0  0  0  0  0  0  0
    6.8789    0.9618   -0.8963 H   0  0  0  0  0  0  0  0  0  0  0  0
   -0.7982    1.2941    0.7883 H   0  0  0  0  0  0  0  0  0  0  0  0
   -0.7721    1.2011   -0.9955 H   0  0  0  0  0  0  0  0  0  0  0  0
   -7.6366    1.2130   -0.0444 H   0  0  0  0  0  0  0  0  0  0  0  0
    8.0474   -1.2683   -0.7101 H   0  0  0  0  0  0  0  0  0  0  0  0
    8.0336   -1.1064    1.0475 H   0  0  0  0  0  0  0  0  0  0  0  0
   -5.4006    1.5964   -0.9317 H   0  0  0  0  0  0  0  0  0  0  0  0
   -5.3578    1.6697    0.8107 H   0  0  0  0  0  0  0  0  0  0  0  0
   -4.4662   -0.7228   -0.8921 H   0  0  0  0  0  0  0  0  0  0  0  0
   -4.4445   -0.6731    0.8951 H   0  0  0  0  0  0  0  0  0  0  0  0
   -8.1962   -0.8448   -1.2155 H   0  0  0  0  0  0  0  0  0  0  0  0
   -6.5617   -1.4828   -1.0681 H   0  0  0  0  0  0  0  0  0  0  0  0
   -6.8782   -0.0708   -2.1007 H   0  0  0  0  0  0  0  0  0  0  0  0
   -6.5735   -1.2653    1.4314 H   0  0  0  0  0  0  0  0  0  0  0  0
   -8.2344   -0.6692    1.3966 H   0  0  0  0  0  0  0  0  0  0  0  0
   -6.9783    0.2811    2.2009 H   0  0  0  0  0  0  0  0  0  0  0  0
    9.4034    0.8243   -0.9045 H   0  0  0  0  0  0  0  0  0  0  0  0
   10.2093   -0.3845    0.1098 H   0  0  0  0  0  0  0  0  0  0  0  0
    9.3900    0.9950    0.8622 H   0  0  0  0  0  0  0  0  0  0  0  0
  1 13  1  0  0  0  0
  1 14  1  0  0  0  0
  2 14  2  0  0  0  0
  3  4  1  0  0  0  0
  3  5  1  0  0  0  0
  3 18  1  0  0  0  0
  3 19  1  0  0  0  0
  4  6  1  0  0  0  0
  4 20  1  0  0  0  0
  4 21  1  0  0  0  0
  5  7  1  0  0  0  0
  5 22  1  0  0  0  0
  5 23  1  0  0  0  0
  6  8  1  0  0  0  0
  6 24  1  0  0  0  0
  6 25  1  0  0  0  0
  7  9  1  0  0  0  0
  7 26  1  0  0  0  0
  7 27  1  0  0  0  0
  8 11  1  0  0  0  0
  8 28  1  0  0  0  0
  8 29  1  0  0  0  0
  9 14  1  0  0  0  0
  9 30  1  0  0  0  0
  9 31  1  0  0  0  0
 10 12  1  0  0  0  0
 10 15  1  0  0  0  0
 10 16  1  0  0  0  0
 10 32  1  0  0  0  0
 11 17  1  0  0  0  0
 11 33  1  0  0  0  0
 11 34  1  0  0  0  0
 12 13  1  0  0  0  0
 12 35  1  0  0  0  0
 12 36  1  0  0  0  0
 13 37  1  0  0  0  0
 13 38  1  0  0  0  0
 15 39  1  0  0  0  0
 15 40  1  0  0  0  0
 15 41  1  0  0  0  0
 16 42  1  0  0  0  0
 16 43  1  0  0  0  0
 16 44  1  0  0  0  0
 17 45  1  0  0  0  0
 17 46  1  0  0  0  0
 17 47  1  0  0  0  0
M  END
> <PUBCHEM_COMPOUND_CID>
75320

> <PUBCHEM_CONFORMER_RMSD>
1.2

> <PUBCHEM_CONFORMER_DIVERSEORDER>
1
97
8
111
66
102
99
69
25
82
49
3
113
22
124
17
2
110
108
90
12
125
35
94
133
4
83
115
67
38
79
129
127
106
114
36
123
104
105
30
119
19
10
91
40
9
64
93
95
45
5
31
61
37
117
63
47
107
6
92
29
85
120
96
89
73
121
16
103
14
15
131
109
74
52
55
62
57
43
23
53
24
34
98
46
86
41
44
21
84
75
132
72
32
68
76
60
128
13
50
39
58
122
48
81
78
26
65
126
42
59
101
33
77
7
70
88
130
20
100
118
18
27
56
80
28
71
116
54
112
11
87
51

> <PUBCHEM_MMFF94_PARTIAL_CHARGES>
5
1 -0.43
13 0.28
14 0.66
2 -0.57
9 0.06

> <PUBCHEM_EFFECTIVE_ROTOR_COUNT>
12

> <PUBCHEM_PHARMACOPHORE_FEATURES>
3
1 17 hydrophobe
1 2 acceptor
3 10 15 16 hydrophobe

> <PUBCHEM_HEAVY_ATOM_COUNT>
17

> <PUBCHEM_ATOM_DEF_STEREO_COUNT>
0

> <PUBCHEM_ATOM_UDEF_STEREO_COUNT>
0

> <PUBCHEM_BOND_DEF_STEREO_COUNT>
0

> <PUBCHEM_BOND_UDEF_STEREO_COUNT>
0

> <PUBCHEM_ISOTOPIC_ATOM_COUNT>
0

> <PUBCHEM_COMPONENT_COUNT>
1

> <PUBCHEM_CACTVS_TAUTO_COUNT>
1

> <PUBCHEM_CONFORMER_ID>
0001263800000001

> <PUBCHEM_MMFF94_ENERGY>
5.7875

> <PUBCHEM_FEATURE_SELFOVERLAP>
15.223

> <PUBCHEM_SHAPE_FINGERPRINT>
11315181 36 17703793638799034658
12091667 2 18412544306711661005
13533116 47 17560802070250930486
13885169 127 18131633370000452192
14123256 10 18410575080373386372
14251764 18 18411417298054435594
14251764 46 18409729555942189141
14428016 248 16343988031169436064
16120349 18 18335137635939459876
17834076 25 18202001027419489037
18006028 8 18273213097316740392
21150785 3 15410895163194884380
21315763 28 18342737416669708952
22224240 67 17632855330924910550
232437 2 18343865507589984958
23402539 116 17917708003393429869
23521765 1 18341894091403808756
246663 6 16660368082049833120
28498 318 18334856096263374334
33532 11 16588017984107954642
33684 2 18410572881344856069
57583515 80 12895352201020093893
59567204 34 18200594684315576793
59682541 35 18259985994336452912
67123 10 18131631201564174700
8209 1 18410573985673749076

> <PUBCHEM_SHAPE_MULTIPOLES>
338.11
29.45
0.92
0.8
27.29
0.06
-0.05
0.46
-1.18
-0.42
0.02
-1.35
0.08
-0.09

> <PUBCHEM_SHAPE_SELFOVERLAP>
618.997

> <PUBCHEM_SHAPE_VOLUME>
215.2

> <PUBCHEM_COORDINATE_TYPE>
2
5
10

$$$$
