75554
  -OEChem-11232109193D

 29 28  0     0  0  0  0  0  0999 V2000
    0.6638    0.2623   -0.1903 O   0  0  0  0  0  0  0  0  0  0  0  0
    1.9464   -1.5003    0.5629 O   0  0  0  0  0  0  0  0  0  0  0  0
   -3.0382   -0.2852    0.1438 C   0  0  0  0  0  0  0  0  0  0  0  0
   -1.7255    0.4191   -0.1922 C   0  0  0  0  0  0  0  0  0  0  0  0
   -4.2437    0.5676   -0.2507 C   0  0  0  0  0  0  0  0  0  0  0  0
   -0.5201   -0.4413    0.1589 C   0  0  0  0  0  0  0  0  0  0  0  0
    3.0136    0.4903   -0.3459 C   0  0  0  0  0  0  0  0  0  0  0  0
    1.8440   -0.3861    0.0666 C   0  0  0  0  0  0  0  0  0  0  0  0
   -5.5526   -0.1446    0.0512 C   0  0  0  0  0  0  0  0  0  0  0  0
    3.4263    1.3801    0.8207 C   0  0  0  0  0  0  0  0  0  0  0  0
    4.1861   -0.3619   -0.8249 C   0  0  0  0  0  0  0  0  0  0  0  0
   -3.0756   -0.5025    1.2182 H   0  0  0  0  0  0  0  0  0  0  0  0
   -3.0830   -1.2468   -0.3820 H   0  0  0  0  0  0  0  0  0  0  0  0
   -1.6594    1.3751    0.3422 H   0  0  0  0  0  0  0  0  0  0  0  0
   -1.6915    0.6697   -1.2599 H   0  0  0  0  0  0  0  0  0  0  0  0
   -4.2182    1.5207    0.2902 H   0  0  0  0  0  0  0  0  0  0  0  0
   -4.2015    0.8006   -1.3211 H   0  0  0  0  0  0  0  0  0  0  0  0
   -0.5590   -1.3861   -0.3959 H   0  0  0  0  0  0  0  0  0  0  0  0
   -0.5135   -0.6565    1.2339 H   0  0  0  0  0  0  0  0  0  0  0  0
    2.6928    1.1153   -1.1886 H   0  0  0  0  0  0  0  0  0  0  0  0
   -5.6236   -1.0864   -0.5021 H   0  0  0  0  0  0  0  0  0  0  0  0
   -5.6414   -0.3658    1.1196 H   0  0  0  0  0  0  0  0  0  0  0  0
   -6.4012    0.4836   -0.2373 H   0  0  0  0  0  0  0  0  0  0  0  0
    4.2522    2.0403    0.5365 H   0  0  0  0  0  0  0  0  0  0  0  0
    3.7453    0.7833    1.6825 H   0  0  0  0  0  0  0  0  0  0  0  0
    2.5891    2.0062    1.1478 H   0  0  0  0  0  0  0  0  0  0  0  0
    5.0054    0.2698   -1.1835 H   0  0  0  0  0  0  0  0  0  0  0  0
    3.8784   -1.0183   -1.6462 H   0  0  0  0  0  0  0  0  0  0  0  0
    4.5744   -0.9981   -0.0218 H   0  0  0  0  0  0  0  0  0  0  0  0
  1  6  1  0  0  0  0
  1  8  1  0  0  0  0
  2  8  2  0  0  0  0
  3  4  1  0  0  0  0
  3  5  1  0  0  0  0
  3 12  1  0  0  0  0
  3 13  1  0  0  0  0
  4  6  1  0  0  0  0
  4 14  1  0  0  0  0
  4 15  1  0  0  0  0
  5  9  1  0  0  0  0
  5 16  1  0  0  0  0
  5 17  1  0  0  0  0
  6 18  1  0  0  0  0
  6 19  1  0  0  0  0
  7  8  1  0  0  0  0
  7 10  1  0  0  0  0
  7 11  1  0  0  0  0
  7 20  1  0  0  0  0
  9 21  1  0  0  0  0
  9 22  1  0  0  0  0
  9 23  1  0  0  0  0
 10 24  1  0  0  0  0
 10 25  1  0  0  0  0
 10 26  1  0  0  0  0
 11 27  1  0  0  0  0
 11 28  1  0  0  0  0
 11 29  1  0  0  0  0
M  END
> <PUBCHEM_COMPOUND_CID>
75554

> <PUBCHEM_CONFORMER_RMSD>
0.6

> <PUBCHEM_CONFORMER_DIVERSEORDER>
1
125
307
320
231
246
321
94
224
172
187
312
9
300
296
242
254
76
198
129
45
6
255
134
67
160
256
53
116
247
280
4
66
324
289
89
196
294
234
162
113
3
132
203
323
19
2
333
278
328
118
79
240
11
302
110
326
322
24
98
26
191
37
200
276
10
249
181
250
317
288
124
194
101
142
74
41
46
93
85
20
262
271
140
314
212
81
264
147
310
211
217
223
13
210
319
120
293
204
146
236
237
275
199
252
90
279
52
292
282
5
259
303
245
31
285
218
32
137
308
75
49
153
69
207
176
174
133
258
139
241
227
239
283
77
325
59
33
243
253
229
232
136
78
92
40
266
267
228
82
55
287
62
130
193
151
163
188
27
12
298
95
184
157
161
56
68
84
23
117
127
14
248
73
186
299
102
215
64
233
128
185
332
183
47
112
290
311
145
263
265
154
30
104
171
257
182
315
277
83
51
29
175
7
330
179
87
167
192
100
177
144
8
309
156
238
316
88
190
281
329
209
205
105
61
150
143
65
202
43
251
189
57
327
225
63
135
274
44
284
60
141
148
54
273
318
138
70
35
244
58
18
152
103
168
206
261
272
15
180
16
170
165
269
226
96
25
22
331
220
260
169
301
39
208
108
42
313
222
91
21
166
50
195
72
197
149
86
305
297
114
111
270
216
286
107
295
219
235
123
164
291
38
126
48
214
36
28
34
230
155
99
173
106
122
119
97
121
158
201
306
159
268
131
71
304
80
178
221
17
115
213
109

> <PUBCHEM_MMFF94_PARTIAL_CHARGES>
5
1 -0.43
2 -0.57
6 0.28
7 0.06
8 0.66

> <PUBCHEM_EFFECTIVE_ROTOR_COUNT>
6

> <PUBCHEM_PHARMACOPHORE_FEATURES>
3
1 2 acceptor
1 9 hydrophobe
3 7 10 11 hydrophobe

> <PUBCHEM_HEAVY_ATOM_COUNT>
11

> <PUBCHEM_ATOM_DEF_STEREO_COUNT>
0

> <PUBCHEM_ATOM_UDEF_STEREO_COUNT>
0

> <PUBCHEM_BOND_DEF_STEREO_COUNT>
0

> <PUBCHEM_BOND_UDEF_STEREO_COUNT>
0

> <PUBCHEM_ISOTOPIC_ATOM_COUNT>
0

> <PUBCHEM_COMPONENT_COUNT>
1

> <PUBCHEM_CACTVS_TAUTO_COUNT>
1

> <PUBCHEM_CONFORMER_ID>
0001272200000001

> <PUBCHEM_MMFF94_ENERGY>
4.3676

> <PUBCHEM_FEATURE_SELFOVERLAP>
15.223

> <PUBCHEM_SHAPE_FINGERPRINT>
11062470 55 16008751311909740781
12932764 1 18340474608458789604
13081056 2 18342175570338240413
14123238 8 16805324405485333989
15242439 84 18411423907660912047
17834072 33 17775282807121979117
17834076 25 17603588529947042943
18186145 218 18341607118378433341
190213 19 17561083617887988049
20279233 1 17022911133587578867
20645477 70 18131073688501702694
20719005 15 18409450284626547277
20724930 37 15430029959256995080
21119208 17 18059859458436276733
22485316 2 18334572447911950907
23402539 116 8286199414728880131
23402655 69 18412262817911116829
23557571 272 17968381147973574261
4047638 21 18202283628147077688
42 15 12035441735942383433
42788 4 18202284702184320253
449060 50 18334012813346150165
449060 62 18334297565182428076
4990 188 18202571661248894262
522135 26 16845575313848134188

> <PUBCHEM_SHAPE_MULTIPOLES>
214.64
10.77
1.07
0.78
10.16
0.06
0
0.98
0.82
-0.93
-0.21
-0.45
0.01
0.39

> <PUBCHEM_SHAPE_SELFOVERLAP>
391.036

> <PUBCHEM_SHAPE_VOLUME>
138.2

> <PUBCHEM_COORDINATE_TYPE>
2
5
10

$$$$
