7567850
  -OEChem-11232108483D

 23 22  0     1  0  0  0  0  0999 V2000
    0.0298   -0.5942   -1.4925 O   0  0  0  0  0  0  0  0  0  0  0  0
    1.3005   -0.3634    0.5510 C   0  0  2  0  0  0  0  0  0  0  0  0
    2.3295    0.6500    0.0267 C   0  0  0  0  0  0  0  0  0  0  0  0
    1.8819   -1.7760    0.5310 C   0  0  0  0  0  0  0  0  0  0  0  0
    0.0232   -0.3568   -0.2865 C   0  0  0  0  0  0  0  0  0  0  0  0
    1.7832    2.0716   -0.0082 C   0  0  0  0  0  0  0  0  0  0  0  0
   -1.2362   -0.0117    0.4349 C   0  0  0  0  0  0  0  0  0  0  0  0
   -2.4089    0.0213   -0.2108 C   0  0  0  0  0  0  0  0  0  0  0  0
   -3.7029    0.3593    0.4544 C   0  0  0  0  0  0  0  0  0  0  0  0
    1.0577   -0.1086    1.5896 H   0  0  0  0  0  0  0  0  0  0  0  0
    3.2213    0.6264    0.6645 H   0  0  0  0  0  0  0  0  0  0  0  0
    2.6520    0.3752   -0.9852 H   0  0  0  0  0  0  0  0  0  0  0  0
    2.1647   -2.0806   -0.4828 H   0  0  0  0  0  0  0  0  0  0  0  0
    2.7721   -1.8393    1.1654 H   0  0  0  0  0  0  0  0  0  0  0  0
    1.1502   -2.5027    0.9010 H   0  0  0  0  0  0  0  0  0  0  0  0
    2.5719    2.7679   -0.3109 H   0  0  0  0  0  0  0  0  0  0  0  0
    0.9616    2.1721   -0.7237 H   0  0  0  0  0  0  0  0  0  0  0  0
    1.4232    2.3778    0.9793 H   0  0  0  0  0  0  0  0  0  0  0  0
   -1.1724    0.2094    1.4944 H   0  0  0  0  0  0  0  0  0  0  0  0
   -2.4634   -0.2027   -1.2727 H   0  0  0  0  0  0  0  0  0  0  0  0
   -3.5784    0.5742    1.5204 H   0  0  0  0  0  0  0  0  0  0  0  0
   -4.1473    1.2390   -0.0212 H   0  0  0  0  0  0  0  0  0  0  0  0
   -4.4024   -0.4762    0.3542 H   0  0  0  0  0  0  0  0  0  0  0  0
  1  5  2  0  0  0  0
  2  3  1  0  0  0  0
  2  4  1  0  0  0  0
  2  5  1  0  0  0  0
  2 10  1  0  0  0  0
  3  6  1  0  0  0  0
  3 11  1  0  0  0  0
  3 12  1  0  0  0  0
  4 13  1  0  0  0  0
  4 14  1  0  0  0  0
  4 15  1  0  0  0  0
  5  7  1  0  0  0  0
  6 16  1  0  0  0  0
  6 17  1  0  0  0  0
  6 18  1  0  0  0  0
  7  8  2  0  0  0  0
  7 19  1  0  0  0  0
  8  9  1  0  0  0  0
  8 20  1  0  0  0  0
  9 21  1  0  0  0  0
  9 22  1  0  0  0  0
  9 23  1  0  0  0  0
M  END
> <PUBCHEM_COMPOUND_CID>
7567850

> <PUBCHEM_CONFORMER_RMSD>
0.6

> <PUBCHEM_CONFORMER_DIVERSEORDER>
1
14
21
2
19
15
20
8
9
5
12
6
16
11
10
17
4
18
7
3
13

> <PUBCHEM_MMFF94_PARTIAL_CHARGES>
8
1 -0.57
19 0.15
2 0.06
20 0.15
5 0.49
7 -0.14
8 -0.29
9 0.14

> <PUBCHEM_EFFECTIVE_ROTOR_COUNT>
3

> <PUBCHEM_PHARMACOPHORE_FEATURES>
4
1 1 acceptor
1 4 hydrophobe
1 6 hydrophobe
1 9 hydrophobe

> <PUBCHEM_HEAVY_ATOM_COUNT>
9

> <PUBCHEM_ATOM_DEF_STEREO_COUNT>
1

> <PUBCHEM_ATOM_UDEF_STEREO_COUNT>
0

> <PUBCHEM_BOND_DEF_STEREO_COUNT>
1

> <PUBCHEM_BOND_UDEF_STEREO_COUNT>
0

> <PUBCHEM_ISOTOPIC_ATOM_COUNT>
0

> <PUBCHEM_COMPONENT_COUNT>
1

> <PUBCHEM_CACTVS_TAUTO_COUNT>
5

> <PUBCHEM_CONFORMER_ID>
007379EA00000001

> <PUBCHEM_MMFF94_ENERGY>
8.2624

> <PUBCHEM_FEATURE_SELFOVERLAP>
20.297

> <PUBCHEM_SHAPE_FINGERPRINT>
10857977 72 15864065494610846085
12932764 1 18260550004872405135
14390081 3 18340206392326008257
15775835 57 18200315557693693057
170605 34 18270967954422483692
19973954 147 18335699382500048285
20653085 51 17842290442974878672
20711978 78 18188191135842325582
20871998 22 18052253995227301082
21040471 1 16702013192895350815
23552449 11 18260825947519918323
29004967 10 18188761748128192338
3248919 1 17704073954662063219
5084963 1 17988640748857728627

> <PUBCHEM_SHAPE_MULTIPOLES>
179.35
4.61
1.58
0.91
4.52
0.33
0.24
0.84
-0.85
-1.66
-0.16
0.04
-0.15
-0.22

> <PUBCHEM_SHAPE_SELFOVERLAP>
329.722

> <PUBCHEM_SHAPE_VOLUME>
114.3

> <PUBCHEM_COORDINATE_TYPE>
2
5
10

$$$$
