7567181
  -OEChem-11232108573D

 38 39  0     1  0  0  0  0  0999 V2000
   -4.1634   -1.0175    0.7336 O   0  0  0  0  0  0  0  0  0  0  0  0
   -0.4201    0.4977   -0.4218 C   0  0  2  0  0  0  0  0  0  0  0  0
    0.9958    0.7628    0.1789 C   0  0  0  0  0  0  0  0  0  0  0  0
   -1.4602    1.3462    0.3963 C   0  0  2  0  0  0  0  0  0  0  0  0
   -0.7574   -0.9950   -0.3107 C   0  0  0  0  0  0  0  0  0  0  0  0
    2.0840   -0.2145   -0.2918 C   0  0  2  0  0  0  0  0  0  0  0  0
    0.3293   -1.9758   -0.6925 C   0  0  0  0  0  0  0  0  0  0  0  0
    1.6565   -1.6576   -0.0135 C   0  0  0  0  0  0  0  0  0  0  0  0
   -0.4277    0.8881   -1.9175 C   0  0  0  0  0  0  0  0  0  0  0  0
   -2.9027    0.9194    0.1108 C   0  0  0  0  0  0  0  0  0  0  0  0
   -1.9535   -1.4636    0.0814 C   0  0  0  0  0  0  0  0  0  0  0  0
   -1.3377    2.8641    0.2133 C   0  0  0  0  0  0  0  0  0  0  0  0
   -3.0860   -0.5542    0.3642 C   0  0  0  0  0  0  0  0  0  0  0  0
    3.3881    0.0932    0.3800 C   0  0  0  0  0  0  0  0  0  0  0  0
    4.5227    0.4779   -0.5226 C   0  0  0  0  0  0  0  0  0  0  0  0
    3.5321    0.0289    1.7119 C   0  0  0  0  0  0  0  0  0  0  0  0
    0.9156    0.7218    1.2738 H   0  0  0  0  0  0  0  0  0  0  0  0
    1.3152    1.7851   -0.0630 H   0  0  0  0  0  0  0  0  0  0  0  0
   -1.2815    1.1460    1.4642 H   0  0  0  0  0  0  0  0  0  0  0  0
    2.2108   -0.0988   -1.3760 H   0  0  0  0  0  0  0  0  0  0  0  0
    0.0442   -3.0041   -0.4379 H   0  0  0  0  0  0  0  0  0  0  0  0
    0.4610   -1.9566   -1.7812 H   0  0  0  0  0  0  0  0  0  0  0  0
    1.5513   -1.8422    1.0635 H   0  0  0  0  0  0  0  0  0  0  0  0
    2.4216   -2.3547   -0.3785 H   0  0  0  0  0  0  0  0  0  0  0  0
    0.2459    0.2630   -2.5132 H   0  0  0  0  0  0  0  0  0  0  0  0
   -1.4250    0.7846   -2.3581 H   0  0  0  0  0  0  0  0  0  0  0  0
   -0.1031    1.9237   -2.0643 H   0  0  0  0  0  0  0  0  0  0  0  0
   -3.2017    1.1362   -0.9200 H   0  0  0  0  0  0  0  0  0  0  0  0
   -3.5826    1.4605    0.7800 H   0  0  0  0  0  0  0  0  0  0  0  0
   -2.1543   -2.5272    0.1568 H   0  0  0  0  0  0  0  0  0  0  0  0
   -0.3311    3.2213    0.4465 H   0  0  0  0  0  0  0  0  0  0  0  0
   -1.5878    3.1728   -0.8065 H   0  0  0  0  0  0  0  0  0  0  0  0
   -2.0274    3.3843    0.8879 H   0  0  0  0  0  0  0  0  0  0  0  0
    4.7403   -0.3322   -1.2262 H   0  0  0  0  0  0  0  0  0  0  0  0
    4.2667    1.3768   -1.0930 H   0  0  0  0  0  0  0  0  0  0  0  0
    5.4407    0.6888    0.0360 H   0  0  0  0  0  0  0  0  0  0  0  0
    4.4838    0.2556    2.1820 H   0  0  0  0  0  0  0  0  0  0  0  0
    2.7186   -0.2503    2.3722 H   0  0  0  0  0  0  0  0  0  0  0  0
  1 13  2  0  0  0  0
  2  3  1  0  0  0  0
  2  4  1  0  0  0  0
  2  5  1  0  0  0  0
  2  9  1  0  0  0  0
  3  6  1  0  0  0  0
  3 17  1  0  0  0  0
  3 18  1  0  0  0  0
  4 10  1  0  0  0  0
  4 12  1  0  0  0  0
  4 19  1  0  0  0  0
  5  7  1  0  0  0  0
  5 11  2  0  0  0  0
  6  8  1  0  0  0  0
  6 14  1  0  0  0  0
  6 20  1  0  0  0  0
  7  8  1  0  0  0  0
  7 21  1  0  0  0  0
  7 22  1  0  0  0  0
  8 23  1  0  0  0  0
  8 24  1  0  0  0  0
  9 25  1  0  0  0  0
  9 26  1  0  0  0  0
  9 27  1  0  0  0  0
 10 13  1  0  0  0  0
 10 28  1  0  0  0  0
 10 29  1  0  0  0  0
 11 13  1  0  0  0  0
 11 30  1  0  0  0  0
 12 31  1  0  0  0  0
 12 32  1  0  0  0  0
 12 33  1  0  0  0  0
 14 15  1  0  0  0  0
 14 16  2  0  0  0  0
 15 34  1  0  0  0  0
 15 35  1  0  0  0  0
 15 36  1  0  0  0  0
 16 37  1  0  0  0  0
 16 38  1  0  0  0  0
M  END
> <PUBCHEM_COMPOUND_CID>
7567181

> <PUBCHEM_CONFORMER_RMSD>
0.6

> <PUBCHEM_CONFORMER_DIVERSEORDER>
1
6
5
3
2
4

> <PUBCHEM_MMFF94_PARTIAL_CHARGES>
14
1 -0.57
10 0.06
11 -0.14
13 0.49
14 -0.28
15 0.14
16 -0.3
2 0.14
30 0.15
37 0.15
38 0.15
5 -0.28
6 0.14
7 0.14

> <PUBCHEM_EFFECTIVE_ROTOR_COUNT>
2.2

> <PUBCHEM_PHARMACOPHORE_FEATURES>
3
1 1 acceptor
6 2 3 5 6 7 8 rings
6 2 4 5 10 11 13 rings

> <PUBCHEM_HEAVY_ATOM_COUNT>
16

> <PUBCHEM_ATOM_DEF_STEREO_COUNT>
3

> <PUBCHEM_ATOM_UDEF_STEREO_COUNT>
0

> <PUBCHEM_BOND_DEF_STEREO_COUNT>
0

> <PUBCHEM_BOND_UDEF_STEREO_COUNT>
0

> <PUBCHEM_ISOTOPIC_ATOM_COUNT>
0

> <PUBCHEM_COMPONENT_COUNT>
1

> <PUBCHEM_CACTVS_TAUTO_COUNT>
5

> <PUBCHEM_CONFORMER_ID>
0073774D00000001

> <PUBCHEM_MMFF94_ENERGY>
36.0666

> <PUBCHEM_FEATURE_SELFOVERLAP>
15.243

> <PUBCHEM_SHAPE_FINGERPRINT>
10608611 8 18198341758370165512
11132069 177 18201995559936729243
12011746 2 18342738520322946621
12119455 92 16343707620711423101
12173636 292 18341609317882048876
12251169 10 18335701675811864498
12382932 28 18411136896529327257
12932764 1 17346304982606839812
13024252 1 13695865887844451701
13140716 1 18124309664744964002
13581323 91 18407758144721153298
13764800 53 18342734070631508344
14178342 30 18191865630661606760
14223421 5 18270402659453731594
14787075 74 18043536216290336075
14943859 89 12535632673693755511
15219456 202 18200316511176192510
15309172 13 18273210902408954622
15375462 478 18334016124671106727
16945 1 18411981368720021127
18186145 218 16845567621952116754
19049666 15 17985832523314593648
19422 9 18113616747167247178
19784866 170 18340779160642934761
19868273 293 10663820801644905520
20388701 513 18410859832700287773
20510252 161 18343024363028371760
20525323 117 18409721842175806814
20645477 56 17988914609664454112
21069387 34 14056720119138311714
21501502 16 18195528090818844467
2297311 6 18270415952899843412
2334 1 17836922669740595605
23388829 49 18410295847733614381
23402539 116 18201432606374162583
23419403 2 17972571528674235309
23463225 33 18334013904109535750
23557571 272 18202014226355188687
23559900 14 18268433425828737270
2748010 2 18196938759979165895
296302 2 17385726893530315301
350125 39 18267591200016955542
43471831 8 18336263448997475090
474 4 17097222864371406516
7097593 13 17608634034515463986
90316 7 17676759869171789556
9882013 296 18186522098739843186

> <PUBCHEM_SHAPE_MULTIPOLES>
323.4
6.44
2.11
1.16
3.34
0.55
-0.15
-0.07
1.83
-1.24
-0.05
0.47
0.16
0.17

> <PUBCHEM_SHAPE_SELFOVERLAP>
667.633

> <PUBCHEM_SHAPE_VOLUME>
184.7

> <PUBCHEM_COORDINATE_TYPE>
2
5
10

$$$$
