75715
  -OEChem-11232109083D

 23 23  0     0  0  0  0  0  0999 V2000
    1.6814   -0.2319   -0.5681 O   0  0  0  0  0  0  0  0  0  0  0  0
    0.8264    2.3644   -0.0637 O   0  0  0  0  0  0  0  0  0  0  0  0
    0.3721    0.0248   -0.2925 C   0  0  0  0  0  0  0  0  0  0  0  0
   -1.8858   -0.7781    0.0142 C   0  0  0  0  0  0  0  0  0  0  0  0
   -0.5423   -1.0281   -0.2654 C   0  0  0  0  0  0  0  0  0  0  0  0
   -0.0568    1.3277   -0.0398 C   0  0  0  0  0  0  0  0  0  0  0  0
   -2.3147    0.5250    0.2670 C   0  0  0  0  0  0  0  0  0  0  0  0
   -1.4003    1.5779    0.2400 C   0  0  0  0  0  0  0  0  0  0  0  0
    2.3683   -1.1164    0.3152 C   0  0  0  0  0  0  0  0  0  0  0  0
   -2.8635   -1.9037    0.0441 C   0  0  0  0  0  0  0  0  0  0  0  0
    3.8151   -0.7615    0.3490 C   0  0  0  0  0  0  0  0  0  0  0  0
   -0.2124   -2.0440   -0.4686 H   0  0  0  0  0  0  0  0  0  0  0  0
   -3.3583    0.7326    0.4882 H   0  0  0  0  0  0  0  0  0  0  0  0
   -1.7478    2.5881    0.4392 H   0  0  0  0  0  0  0  0  0  0  0  0
    1.9545   -1.0528    1.3295 H   0  0  0  0  0  0  0  0  0  0  0  0
    2.2423   -2.1427   -0.0469 H   0  0  0  0  0  0  0  0  0  0  0  0
   -2.5945   -2.6781   -0.6824 H   0  0  0  0  0  0  0  0  0  0  0  0
   -2.8901   -2.3517    1.0424 H   0  0  0  0  0  0  0  0  0  0  0  0
   -3.8717   -1.5610   -0.2123 H   0  0  0  0  0  0  0  0  0  0  0  0
    4.3721   -1.4314    1.0105 H   0  0  0  0  0  0  0  0  0  0  0  0
    4.2547   -0.8171   -0.6527 H   0  0  0  0  0  0  0  0  0  0  0  0
    3.9563    0.2676    0.6963 H   0  0  0  0  0  0  0  0  0  0  0  0
    0.3515    3.1898    0.1340 H   0  0  0  0  0  0  0  0  0  0  0  0
  1  3  1  0  0  0  0
  1  9  1  0  0  0  0
  2  6  1  0  0  0  0
  2 23  1  0  0  0  0
  3  5  1  0  0  0  0
  3  6  2  0  0  0  0
  4  5  2  0  0  0  0
  4  7  1  0  0  0  0
  4 10  1  0  0  0  0
  5 12  1  0  0  0  0
  6  8  1  0  0  0  0
  7  8  2  0  0  0  0
  7 13  1  0  0  0  0
  8 14  1  0  0  0  0
  9 11  1  0  0  0  0
  9 15  1  0  0  0  0
  9 16  1  0  0  0  0
 10 17  1  0  0  0  0
 10 18  1  0  0  0  0
 10 19  1  0  0  0  0
 11 20  1  0  0  0  0
 11 21  1  0  0  0  0
 11 22  1  0  0  0  0
M  END
> <PUBCHEM_COMPOUND_CID>
75715

> <PUBCHEM_CONFORMER_RMSD>
0.4

> <PUBCHEM_CONFORMER_DIVERSEORDER>
1
10
11
14
15
12
2
9
8
7
13
3
4
5
6

> <PUBCHEM_MMFF94_PARTIAL_CHARGES>
14
1 -0.36
10 0.14
12 0.15
13 0.15
14 0.15
2 -0.53
23 0.45
3 0.08
4 -0.14
5 -0.15
6 0.08
7 -0.15
8 -0.15
9 0.28

> <PUBCHEM_EFFECTIVE_ROTOR_COUNT>
2

> <PUBCHEM_PHARMACOPHORE_FEATURES>
3
1 1 acceptor
1 2 donor
6 3 4 5 6 7 8 rings

> <PUBCHEM_HEAVY_ATOM_COUNT>
11

> <PUBCHEM_ATOM_DEF_STEREO_COUNT>
0

> <PUBCHEM_ATOM_UDEF_STEREO_COUNT>
0

> <PUBCHEM_BOND_DEF_STEREO_COUNT>
0

> <PUBCHEM_BOND_UDEF_STEREO_COUNT>
0

> <PUBCHEM_ISOTOPIC_ATOM_COUNT>
0

> <PUBCHEM_COMPONENT_COUNT>
1

> <PUBCHEM_CACTVS_TAUTO_COUNT>
3

> <PUBCHEM_CONFORMER_ID>
000127C300000001

> <PUBCHEM_MMFF94_ENERGY>
31.4169

> <PUBCHEM_FEATURE_SELFOVERLAP>
15.223

> <PUBCHEM_SHAPE_FINGERPRINT>
10857977 72 18342448232078651802
12423570 1 10158324608483188727
13024252 1 15575289674628946121
14128692 85 18336552702043232052
16945 1 18269005210492865485
193761 8 18339363079871670037
20645477 70 18122903407186618463
20653085 51 10303807735200851582
20653091 64 18265619951313314209
20871998 184 18201718427161652478
20871998 22 18271257074472935326
21040471 1 17979930306268555165
21501502 16 18339368581735150325
21501925 9 18268985556606558939
21650355 55 18337095770962338066
23402539 116 18199173006789104557
23552423 10 18118974821568680373
241688 4 18408885157093331457
2748010 2 18339922739922074477
369184 2 18265610992206713442
5493415 88 18338231664846699579
75552 356 18340205193887506442

> <PUBCHEM_SHAPE_MULTIPOLES>
214.64
4.64
2.1
0.67
3.53
0.7
0.01
-2.52
0.68
-0.78
0.05
0.05
-0.03
-0.21

> <PUBCHEM_SHAPE_SELFOVERLAP>
438.299

> <PUBCHEM_SHAPE_VOLUME>
125.8

> <PUBCHEM_COORDINATE_TYPE>
2
5
10

$$$$
