75809
  -OEChem-11232108493D

 14 13  0     0  0  0  0  0  0999 V2000
   -3.6990    0.4705   -0.0082 Br  0  0  0  0  0  0  0  0  0  0  0  0
    2.8073   -0.6603    0.0143 O   0  0  0  0  0  0  0  0  0  0  0  0
    1.7408    1.3435   -0.0141 O   0  0  0  0  0  0  0  0  0  0  0  0
   -0.8460    0.1249    0.0600 C   0  0  0  0  0  0  0  0  0  0  0  0
    0.4336   -0.7132   -0.0202 C   0  0  0  0  0  0  0  0  0  0  0  0
   -2.1324   -0.6867   -0.0175 C   0  0  0  0  0  0  0  0  0  0  0  0
    1.6958    0.1213   -0.0141 C   0  0  0  0  0  0  0  0  0  0  0  0
   -0.8352    0.7082    0.9901 H   0  0  0  0  0  0  0  0  0  0  0  0
   -0.8356    0.8636   -0.7527 H   0  0  0  0  0  0  0  0  0  0  0  0
    0.4276   -1.3033   -0.9434 H   0  0  0  0  0  0  0  0  0  0  0  0
    0.4710   -1.3962    0.8357 H   0  0  0  0  0  0  0  0  0  0  0  0
   -2.1856   -1.2673   -0.9427 H   0  0  0  0  0  0  0  0  0  0  0  0
   -2.2349   -1.3602    0.8377 H   0  0  0  0  0  0  0  0  0  0  0  0
    3.6296   -0.1256    0.0284 H   0  0  0  0  0  0  0  0  0  0  0  0
  1  6  1  0  0  0  0
  2  7  1  0  0  0  0
  2 14  1  0  0  0  0
  3  7  2  0  0  0  0
  4  5  1  0  0  0  0
  4  6  1  0  0  0  0
  4  8  1  0  0  0  0
  4  9  1  0  0  0  0
  5  7  1  0  0  0  0
  5 10  1  0  0  0  0
  5 11  1  0  0  0  0
  6 12  1  0  0  0  0
  6 13  1  0  0  0  0
M  END
> <PUBCHEM_COMPOUND_CID>
75809

> <PUBCHEM_CONFORMER_RMSD>
0.4

> <PUBCHEM_CONFORMER_DIVERSEORDER>
1
23
10
3
20
22
13
19
15
21
8
5
14
12
18
7
4
11
16
2
6
17
9

> <PUBCHEM_MMFF94_PARTIAL_CHARGES>
7
1 -0.23
14 0.5
2 -0.65
3 -0.57
5 0.06
6 0.23
7 0.66

> <PUBCHEM_EFFECTIVE_ROTOR_COUNT>
3

> <PUBCHEM_PHARMACOPHORE_FEATURES>
4
1 1 hydrophobe
1 2 acceptor
1 3 acceptor
3 2 3 7 anion

> <PUBCHEM_HEAVY_ATOM_COUNT>
7

> <PUBCHEM_ATOM_DEF_STEREO_COUNT>
0

> <PUBCHEM_ATOM_UDEF_STEREO_COUNT>
0

> <PUBCHEM_BOND_DEF_STEREO_COUNT>
0

> <PUBCHEM_BOND_UDEF_STEREO_COUNT>
0

> <PUBCHEM_ISOTOPIC_ATOM_COUNT>
0

> <PUBCHEM_COMPONENT_COUNT>
1

> <PUBCHEM_CACTVS_TAUTO_COUNT>
1

> <PUBCHEM_CONFORMER_ID>
0001282100000001

> <PUBCHEM_MMFF94_ENERGY>
2.9425

> <PUBCHEM_FEATURE_SELFOVERLAP>
20.356

> <PUBCHEM_SHAPE_FINGERPRINT>
11062470 55 13758069688865544619
12932764 1 17168413931044246395
14325111 11 18410575119429083619
14390081 3 18411134758089385265
5460574 1 9079117756632395051

> <PUBCHEM_SHAPE_MULTIPOLES>
138.26
5.52
1.04
0.61
2.84
0.17
0
0.6
0.03
-0.22
0.01
0.14
0
-0.01

> <PUBCHEM_SHAPE_SELFOVERLAP>
235.537

> <PUBCHEM_SHAPE_VOLUME>
94.4

> <PUBCHEM_COORDINATE_TYPE>
2
5
10

$$$$
