7614
  -OEChem-11232109143D

 36 35  0     1  0  0  0  0  0999 V2000
    1.2228   -0.6716    0.0549 O   0  0  0  0  0  0  0  0  0  0  0  0
    2.7479   -2.5093   -1.2467 O   0  0  0  0  0  0  0  0  0  0  0  0
    0.0928    1.4679    0.0584 C   0  0  0  0  0  0  0  0  0  0  0  0
    0.4299    0.2000    0.8591 C   0  0  1  0  0  0  0  0  0  0  0  0
    1.3202    2.2761   -0.4108 C   0  0  0  0  0  0  0  0  0  0  0  0
   -0.8503   -0.5278    1.2927 C   0  0  0  0  0  0  0  0  0  0  0  0
    2.1940    2.7382    0.7560 C   0  0  0  0  0  0  0  0  0  0  0  0
    0.8594    3.4900   -1.2225 C   0  0  0  0  0  0  0  0  0  0  0  0
   -1.7024   -0.9137    0.1134 C   0  0  0  0  0  0  0  0  0  0  0  0
   -2.9424   -0.4775   -0.1784 C   0  0  0  0  0  0  0  0  0  0  0  0
    1.5891   -1.8423    0.7688 C   0  0  0  0  0  0  0  0  0  0  0  0
   -3.6401   -0.9387   -1.4298 C   0  0  0  0  0  0  0  0  0  0  0  0
   -3.7462    0.4633    0.6739 C   0  0  0  0  0  0  0  0  0  0  0  0
    2.4254   -2.7546   -0.0891 C   0  0  0  0  0  0  0  0  0  0  0  0
   -0.4647    1.1968   -0.8468 H   0  0  0  0  0  0  0  0  0  0  0  0
   -0.5606    2.1132    0.6597 H   0  0  0  0  0  0  0  0  0  0  0  0
    0.9955    0.4712    1.7583 H   0  0  0  0  0  0  0  0  0  0  0  0
    1.9319    1.6464   -1.0688 H   0  0  0  0  0  0  0  0  0  0  0  0
   -0.6631   -1.4161    1.9012 H   0  0  0  0  0  0  0  0  0  0  0  0
   -1.3859    0.1425    1.9707 H   0  0  0  0  0  0  0  0  0  0  0  0
    2.6639    1.8901    1.2632 H   0  0  0  0  0  0  0  0  0  0  0  0
    1.6089    3.2984    1.4931 H   0  0  0  0  0  0  0  0  0  0  0  0
    3.0021    3.3878    0.4023 H   0  0  0  0  0  0  0  0  0  0  0  0
    1.7185    4.0543   -1.6005 H   0  0  0  0  0  0  0  0  0  0  0  0
    0.2617    3.1775   -2.0853 H   0  0  0  0  0  0  0  0  0  0  0  0
    0.2501    4.1674   -0.6144 H   0  0  0  0  0  0  0  0  0  0  0  0
   -1.2365   -1.6174   -0.5750 H   0  0  0  0  0  0  0  0  0  0  0  0
    0.7308   -2.4602    1.0384 H   0  0  0  0  0  0  0  0  0  0  0  0
    2.1716   -1.5848    1.6592 H   0  0  0  0  0  0  0  0  0  0  0  0
   -3.8879   -0.0803   -2.0627 H   0  0  0  0  0  0  0  0  0  0  0  0
   -4.5671   -1.4632   -1.1761 H   0  0  0  0  0  0  0  0  0  0  0  0
   -3.0240   -1.6216   -2.0241 H   0  0  0  0  0  0  0  0  0  0  0  0
   -3.2598    0.7629    1.6025 H   0  0  0  0  0  0  0  0  0  0  0  0
   -4.6982   -0.0042    0.9484 H   0  0  0  0  0  0  0  0  0  0  0  0
   -3.9654    1.3777    0.1121 H   0  0  0  0  0  0  0  0  0  0  0  0
    2.7481   -3.6914    0.3970 H   0  0  0  0  0  0  0  0  0  0  0  0
  1  4  1  0  0  0  0
  1 11  1  0  0  0  0
  2 14  2  0  0  0  0
  3  4  1  0  0  0  0
  3  5  1  0  0  0  0
  3 15  1  0  0  0  0
  3 16  1  0  0  0  0
  4  6  1  0  0  0  0
  4 17  1  0  0  0  0
  5  7  1  0  0  0  0
  5  8  1  0  0  0  0
  5 18  1  0  0  0  0
  6  9  1  0  0  0  0
  6 19  1  0  0  0  0
  6 20  1  0  0  0  0
  7 21  1  0  0  0  0
  7 22  1  0  0  0  0
  7 23  1  0  0  0  0
  8 24  1  0  0  0  0
  8 25  1  0  0  0  0
  8 26  1  0  0  0  0
  9 10  2  0  0  0  0
  9 27  1  0  0  0  0
 10 12  1  0  0  0  0
 10 13  1  0  0  0  0
 11 14  1  0  0  0  0
 11 28  1  0  0  0  0
 11 29  1  0  0  0  0
 12 30  1  0  0  0  0
 12 31  1  0  0  0  0
 12 32  1  0  0  0  0
 13 33  1  0  0  0  0
 13 34  1  0  0  0  0
 13 35  1  0  0  0  0
 14 36  1  0  0  0  0
M  END
> <PUBCHEM_COMPOUND_CID>
7614

> <PUBCHEM_CONFORMER_RMSD>
0.8

> <PUBCHEM_CONFORMER_DIVERSEORDER>
2
35
41
34
12
11
18
33
29
27
36
15
30
16
39
14
38
24
20
7
17
25
31
40
8
32
19
37
28
4
3
21
23
1
10
6
22
5
9
26
13

> <PUBCHEM_MMFF94_PARTIAL_CHARGES>
12
1 -0.56
10 -0.28
11 0.34
12 0.14
13 0.14
14 0.45
2 -0.57
27 0.15
36 0.06
4 0.28
6 0.14
9 -0.29

> <PUBCHEM_EFFECTIVE_ROTOR_COUNT>
7

> <PUBCHEM_PHARMACOPHORE_FEATURES>
4
1 1 acceptor
1 2 acceptor
3 10 12 13 hydrophobe
3 5 7 8 hydrophobe

> <PUBCHEM_HEAVY_ATOM_COUNT>
14

> <PUBCHEM_ATOM_DEF_STEREO_COUNT>
0

> <PUBCHEM_ATOM_UDEF_STEREO_COUNT>
1

> <PUBCHEM_BOND_DEF_STEREO_COUNT>
0

> <PUBCHEM_BOND_UDEF_STEREO_COUNT>
0

> <PUBCHEM_ISOTOPIC_ATOM_COUNT>
0

> <PUBCHEM_COMPONENT_COUNT>
1

> <PUBCHEM_CACTVS_TAUTO_COUNT>
2

> <PUBCHEM_CONFORMER_ID>
00001DBE00000002

> <PUBCHEM_MMFF94_ENERGY>
20.8001

> <PUBCHEM_FEATURE_SELFOVERLAP>
20.303

> <PUBCHEM_SHAPE_FINGERPRINT>
1 1 18193837269705663752
12500047 106 17547851215014139656
13380535 76 17972868439515104459
14004458 79 17905038153942489470
14178000 22 17620455244433885400
14181834 199 18337378435360224242
14250199 8 18335975454771384421
14648413 74 18261959643135216819
15502722 9 18266177408346701967
20339313 130 18338805511438274955
20361792 2 18267868289568468779
20645477 70 18338502145525238863
20671657 53 18338792308550785083
20711985 344 17831577570135365578
21421566 26 17839483102036797630
21524375 3 17539116659913557377
23419403 2 17463648157879081324
23526113 38 17749687241178628818
23557571 272 17981609269673623566
23598291 2 18272373040610629807
2748010 2 18190724350392584833
3060560 45 18120923164726149956
4175511 71 18265904562027672465
58734985 102 18412824681243242678
58734987 140 18410573950807634510
68419 9 17129617641635595963
6992083 37 17913780418534994897
7364860 26 18341612650243517729
81228 2 17905335022256043034

> <PUBCHEM_SHAPE_MULTIPOLES>
276.37
5.23
3.95
1.26
5.74
0.16
0.18
-0.21
1.01
-5.5
1.28
0.21
0.01
0.03

> <PUBCHEM_SHAPE_SELFOVERLAP>
514.703

> <PUBCHEM_SHAPE_VOLUME>
173.7

> <PUBCHEM_COORDINATE_TYPE>
2
5
10

$$$$
