76674
  -OEChem-11232109263D

 20 20  0     0  0  0  0  0  0999 V2000
    2.2352   -0.9430    0.0000 O   0  0  0  0  0  0  0  0  0  0  0  0
   -2.4599   -1.8044    0.0001 O   0  0  0  0  0  0  0  0  0  0  0  0
   -0.6129    1.3538    0.0001 C   0  0  0  0  0  0  0  0  0  0  0  0
    0.7012    0.8858    0.0000 C   0  0  0  0  0  0  0  0  0  0  0  0
    0.9529   -0.4862    0.0000 C   0  0  0  0  0  0  0  0  0  0  0  0
   -1.6751    0.4498   -0.0001 C   0  0  0  0  0  0  0  0  0  0  0  0
   -1.4233   -0.9222   -0.0001 C   0  0  0  0  0  0  0  0  0  0  0  0
   -0.1093   -1.3901    0.0000 C   0  0  0  0  0  0  0  0  0  0  0  0
   -0.8820    2.8206    0.0000 C   0  0  0  0  0  0  0  0  0  0  0  0
    3.2731    0.0359    0.0000 C   0  0  0  0  0  0  0  0  0  0  0  0
    1.4870    1.6342    0.0018 H   0  0  0  0  0  0  0  0  0  0  0  0
   -2.7021    0.8065    0.0016 H   0  0  0  0  0  0  0  0  0  0  0  0
    0.0942   -2.4581    0.0001 H   0  0  0  0  0  0  0  0  0  0  0  0
   -0.7272    3.2313    1.0028 H   0  0  0  0  0  0  0  0  0  0  0  0
   -0.2179    3.3364   -0.7019 H   0  0  0  0  0  0  0  0  0  0  0  0
   -1.9096    3.0423   -0.3074 H   0  0  0  0  0  0  0  0  0  0  0  0
    3.2521    0.6452    0.9099 H   0  0  0  0  0  0  0  0  0  0  0  0
    3.2515    0.6458   -0.9096 H   0  0  0  0  0  0  0  0  0  0  0  0
    4.2259   -0.5038   -0.0005 H   0  0  0  0  0  0  0  0  0  0  0  0
   -2.1036   -2.7095    0.0001 H   0  0  0  0  0  0  0  0  0  0  0  0
  1  5  1  0  0  0  0
  1 10  1  0  0  0  0
  2  7  1  0  0  0  0
  2 20  1  0  0  0  0
  3  4  1  0  0  0  0
  3  6  2  0  0  0  0
  3  9  1  0  0  0  0
  4  5  2  0  0  0  0
  4 11  1  0  0  0  0
  5  8  1  0  0  0  0
  6  7  1  0  0  0  0
  6 12  1  0  0  0  0
  7  8  2  0  0  0  0
  8 13  1  0  0  0  0
  9 14  1  0  0  0  0
  9 15  1  0  0  0  0
  9 16  1  0  0  0  0
 10 17  1  0  0  0  0
 10 18  1  0  0  0  0
 10 19  1  0  0  0  0
M  END
> <PUBCHEM_COMPOUND_CID>
76674

> <PUBCHEM_CONFORMER_RMSD>
0.4

> <PUBCHEM_CONFORMER_DIVERSEORDER>
2
1

> <PUBCHEM_MMFF94_PARTIAL_CHARGES>
14
1 -0.36
10 0.28
11 0.15
12 0.15
13 0.15
2 -0.53
20 0.45
3 -0.14
4 -0.15
5 0.08
6 -0.15
7 0.08
8 -0.15
9 0.14

> <PUBCHEM_EFFECTIVE_ROTOR_COUNT>
1

> <PUBCHEM_PHARMACOPHORE_FEATURES>
3
1 1 acceptor
1 2 donor
6 3 4 5 6 7 8 rings

> <PUBCHEM_HEAVY_ATOM_COUNT>
10

> <PUBCHEM_ATOM_DEF_STEREO_COUNT>
0

> <PUBCHEM_ATOM_UDEF_STEREO_COUNT>
0

> <PUBCHEM_BOND_DEF_STEREO_COUNT>
0

> <PUBCHEM_BOND_UDEF_STEREO_COUNT>
0

> <PUBCHEM_ISOTOPIC_ATOM_COUNT>
0

> <PUBCHEM_COMPONENT_COUNT>
1

> <PUBCHEM_CACTVS_TAUTO_COUNT>
9

> <PUBCHEM_CONFORMER_ID>
00012B8200000002

> <PUBCHEM_MMFF94_ENERGY>
32.345

> <PUBCHEM_FEATURE_SELFOVERLAP>
15.223

> <PUBCHEM_SHAPE_FINGERPRINT>
1 1 17184750186804431429
100427 49 18269268148121824609
10857977 72 18340756148123896810
12716758 59 18124878958628727810
13024252 1 17676211247091682058
16945 1 18338517417637100196
18185500 45 18266462185889343799
193761 8 17978228253647356583
20871998 184 18273216386955500422
21040471 1 17906170650892620676
23552423 10 18188495674999390798
23559900 14 17695352478603535878
241688 4 18410854399445443321
2748010 2 18339916142556895621

> <PUBCHEM_SHAPE_MULTIPOLES>
194.06
3.36
2.36
0.6
2.81
1.15
0
-0.71
0
-1.65
0
0
0.03
0

> <PUBCHEM_SHAPE_SELFOVERLAP>
400.093

> <PUBCHEM_SHAPE_VOLUME>
113.1

> <PUBCHEM_COORDINATE_TYPE>
2
5
10

$$$$
