76722
  -OEChem-11232109163D

 43 42  0     1  0  0  0  0  0999 V2000
   -2.9708   -0.3743   -0.0922 O   0  0  0  0  0  0  0  0  0  0  0  0
   -3.1667    1.3974    1.3774 O   0  0  0  0  0  0  0  0  0  0  0  0
   -1.1312   -0.9274   -1.5495 C   0  0  0  0  0  0  0  0  0  0  0  0
   -0.7458   -2.1771   -0.7449 C   0  0  0  0  0  0  0  0  0  0  0  0
   -1.8134    0.1682   -0.7221 C   0  0  1  0  0  0  0  0  0  0  0  0
    1.5726   -1.8169    0.2882 C   0  0  0  0  0  0  0  0  0  0  0  0
    2.4911   -1.4988    1.4496 C   0  0  0  0  0  0  0  0  0  0  0  0
    0.2264   -1.8291    0.3491 C   0  0  0  0  0  0  0  0  0  0  0  0
    3.3920   -0.2793    1.2174 C   0  0  0  0  0  0  0  0  0  0  0  0
   -2.2102    1.3882   -1.5415 C   0  0  0  0  0  0  0  0  0  0  0  0
    2.2701   -2.1843   -0.9969 C   0  0  0  0  0  0  0  0  0  0  0  0
    2.6125    0.9810    0.9624 C   0  0  0  0  0  0  0  0  0  0  0  0
    2.7202    1.8293   -0.0775 C   0  0  0  0  0  0  0  0  0  0  0  0
   -3.6503    0.4774    0.7319 C   0  0  0  0  0  0  0  0  0  0  0  0
    3.6469    1.6570   -1.2469 C   0  0  0  0  0  0  0  0  0  0  0  0
    1.8633    3.0659   -0.1421 C   0  0  0  0  0  0  0  0  0  0  0  0
   -5.1066    0.1229    0.7376 C   0  0  0  0  0  0  0  0  0  0  0  0
   -1.8192   -1.2500   -2.3418 H   0  0  0  0  0  0  0  0  0  0  0  0
   -0.2444   -0.5150   -2.0467 H   0  0  0  0  0  0  0  0  0  0  0  0
   -0.3547   -2.9498   -1.4133 H   0  0  0  0  0  0  0  0  0  0  0  0
   -1.6377   -2.6224   -0.2872 H   0  0  0  0  0  0  0  0  0  0  0  0
   -1.1143    0.4995    0.0564 H   0  0  0  0  0  0  0  0  0  0  0  0
    1.8973   -1.3370    2.3590 H   0  0  0  0  0  0  0  0  0  0  0  0
    3.1201   -2.3747    1.6528 H   0  0  0  0  0  0  0  0  0  0  0  0
   -0.2349   -1.5643    1.2997 H   0  0  0  0  0  0  0  0  0  0  0  0
    4.1119   -0.4995    0.4257 H   0  0  0  0  0  0  0  0  0  0  0  0
    3.9899   -0.1210    2.1239 H   0  0  0  0  0  0  0  0  0  0  0  0
   -3.0176    1.1414   -2.2399 H   0  0  0  0  0  0  0  0  0  0  0  0
   -2.5680    2.2149   -0.9210 H   0  0  0  0  0  0  0  0  0  0  0  0
   -1.3572    1.7609   -2.1182 H   0  0  0  0  0  0  0  0  0  0  0  0
    2.9576   -3.0187   -0.8199 H   0  0  0  0  0  0  0  0  0  0  0  0
    2.8524   -1.3377   -1.3721 H   0  0  0  0  0  0  0  0  0  0  0  0
    1.6094   -2.4849   -1.8113 H   0  0  0  0  0  0  0  0  0  0  0  0
    1.8999    1.2293    1.7486 H   0  0  0  0  0  0  0  0  0  0  0  0
    4.2989    0.7854   -1.1724 H   0  0  0  0  0  0  0  0  0  0  0  0
    3.0678    1.5556   -2.1709 H   0  0  0  0  0  0  0  0  0  0  0  0
    4.2949    2.5347   -1.3432 H   0  0  0  0  0  0  0  0  0  0  0  0
    1.1947    3.1569    0.7204 H   0  0  0  0  0  0  0  0  0  0  0  0
    2.4919    3.9620   -0.1711 H   0  0  0  0  0  0  0  0  0  0  0  0
    1.2404    3.0476   -1.0426 H   0  0  0  0  0  0  0  0  0  0  0  0
   -5.6437    0.8064    1.4013 H   0  0  0  0  0  0  0  0  0  0  0  0
   -5.5157    0.2233   -0.2708 H   0  0  0  0  0  0  0  0  0  0  0  0
   -5.2383   -0.8970    1.1073 H   0  0  0  0  0  0  0  0  0  0  0  0
  1  5  1  0  0  0  0
  1 14  1  0  0  0  0
  2 14  2  0  0  0  0
  3  4  1  0  0  0  0
  3  5  1  0  0  0  0
  3 18  1  0  0  0  0
  3 19  1  0  0  0  0
  4  8  1  0  0  0  0
  4 20  1  0  0  0  0
  4 21  1  0  0  0  0
  5 10  1  0  0  0  0
  5 22  1  0  0  0  0
  6  7  1  0  0  0  0
  6  8  2  3  0  0  0
  6 11  1  0  0  0  0
  7  9  1  0  0  0  0
  7 23  1  0  0  0  0
  7 24  1  0  0  0  0
  8 25  1  0  0  0  0
  9 12  1  0  0  0  0
  9 26  1  0  0  0  0
  9 27  1  0  0  0  0
 10 28  1  0  0  0  0
 10 29  1  0  0  0  0
 10 30  1  0  0  0  0
 11 31  1  0  0  0  0
 11 32  1  0  0  0  0
 11 33  1  0  0  0  0
 12 13  2  0  0  0  0
 12 34  1  0  0  0  0
 13 15  1  0  0  0  0
 13 16  1  0  0  0  0
 14 17  1  0  0  0  0
 15 35  1  0  0  0  0
 15 36  1  0  0  0  0
 15 37  1  0  0  0  0
 16 38  1  0  0  0  0
 16 39  1  0  0  0  0
 16 40  1  0  0  0  0
 17 41  1  0  0  0  0
 17 42  1  0  0  0  0
 17 43  1  0  0  0  0
M  END
> <PUBCHEM_COMPOUND_CID>
76722

> <PUBCHEM_CONFORMER_RMSD>
1

> <PUBCHEM_CONFORMER_DIVERSEORDER>
2
8
356
114
154
201
349
89
348
31
123
266
222
241
211
174
246
162
166
54
313
252
353
159
13
164
33
100
176
200
42
355
307
121
16
4
36
281
183
292
47
346
283
145
275
153
229
304
253
210
317
75
185
323
289
92
141
68
319
147
130
112
116
197
206
306
263
122
257
214
218
177
149
133
296
277
248
24
63
295
109
83
268
171
46
105
86
6
242
232
338
45
333
297
22
32
203
299
341
245
234
26
340
168
58
73
10
335
254
85
350
53
120
271
34
96
196
205
184
260
113
331
80
247
140
204
327
265
129
82
136
258
291
315
167
146
302
94
93
300
126
165
243
19
198
272
250
178
239
115
51
352
99
311
138
81
97
44
314
238
142
227
339
345
40
261
87
351
160
334
235
274
125
180
216
137
50
11
199
179
325
251
358
155
101
290
309
144
279
223
195
107
64
255
84
220
187
329
27
312
225
55
267
336
288
21
52
39
286
244
240
48
41
270
194
1
157
152
213
224
111
148
189
106
117
59
49
308
276
74
212
15
233
190
343
175
330
273
12
150
316
264
91
78
7
342
359
61
287
163
102
337
71
202
128
192
161
285
23
67
70
170
328
156
3
14
127
77
269
278
30
282
193
293
124
259
231
324
5
318
237
320
158
169
305
226
37
236
357
17
181
284
219
60
228
79
301
143
135
104
90
69
76
98
131
25
303
65
249
173
172
132
28
221
20
344
347
139
209
108
119
72
354
56
9
280
62
88
332
35
118
103
38
322
29
207
326
134
321
208
18
66
188
186
262
110
230
57
151
298
95
43
310
191
217
256
215
294
182

> <PUBCHEM_MMFF94_PARTIAL_CHARGES>
17
1 -0.43
11 0.14
12 -0.29
13 -0.28
14 0.66
15 0.14
16 0.14
17 0.06
2 -0.57
25 0.15
34 0.15
4 0.14
5 0.28
6 -0.28
7 0.14
8 -0.29
9 0.14

> <PUBCHEM_EFFECTIVE_ROTOR_COUNT>
8

> <PUBCHEM_PHARMACOPHORE_FEATURES>
4
1 11 hydrophobe
1 2 acceptor
3 13 15 16 hydrophobe
4 6 7 9 12 hydrophobe

> <PUBCHEM_HEAVY_ATOM_COUNT>
17

> <PUBCHEM_ATOM_DEF_STEREO_COUNT>
0

> <PUBCHEM_ATOM_UDEF_STEREO_COUNT>
1

> <PUBCHEM_BOND_DEF_STEREO_COUNT>
0

> <PUBCHEM_BOND_UDEF_STEREO_COUNT>
1

> <PUBCHEM_ISOTOPIC_ATOM_COUNT>
0

> <PUBCHEM_COMPONENT_COUNT>
1

> <PUBCHEM_CACTVS_TAUTO_COUNT>
1

> <PUBCHEM_CONFORMER_ID>
00012BB200000002

> <PUBCHEM_MMFF94_ENERGY>
20.4737

> <PUBCHEM_FEATURE_SELFOVERLAP>
20.316

> <PUBCHEM_SHAPE_FINGERPRINT>
10366900 7 17677061139721228923
10382601 240 18187644730498619168
10681291 71 18263651813015795332
12617007 42 17986691276551388622
12633257 1 17894623755802753434
12670545 47 17968388870282801467
128993 33 18194119857263721752
13583140 156 17604973841837252419
14026960 21 18333725814993959157
14123250 116 17690281938011324612
15342168 16 18411702101767879285
15806764 133 18121505652527895111
17357990 137 18341883121994226218
18219364 16 18191005851138742215
18981168 100 18059024980882991546
20465049 17 18265353839883196308
20539926 19 18272650168695276224
20671657 1 18413669119411678438
20681677 76 18042954398930425975
21503847 285 18270407066032272130
21524375 3 18264761241791778774
21665062 11 18335690603813554106
23419403 2 17251805286852128594
23557571 272 14779537989533366516
23558518 356 17615973652403451916
251288 83 14273459214534044502
2637199 183 18340220677518947692
31174 14 18041274387627644819
3286 77 17458621151492777099
44154327 71 18261113023260616060
474 4 18411695491475853979
49207404 50 18261682548998715851
9882013 296 18187085083174400163

> <PUBCHEM_SHAPE_MULTIPOLES>
338.11
7.86
3.01
1.55
6.83
0.55
0.12
3.03
-2.31
-2.63
0.51
0.01
-0.02
-0.78

> <PUBCHEM_SHAPE_SELFOVERLAP>
638.825

> <PUBCHEM_SHAPE_VOLUME>
209.7

> <PUBCHEM_COORDINATE_TYPE>
2
5
10

$$$$
