76877
  -OEChem-11232109253D

 26 26  0     0  0  0  0  0  0999 V2000
   -1.9689   -0.2288    1.1911 O   0  0  0  0  0  0  0  0  0  0  0  0
    1.4062    0.9410    0.8275 C   0  0  0  0  0  0  0  0  0  0  0  0
    2.2564   -0.2022    0.2687 C   0  0  0  0  0  0  0  0  0  0  0  0
    0.8662    1.8954   -0.2435 C   0  0  0  0  0  0  0  0  0  0  0  0
    1.5225   -1.2034   -0.6283 C   0  0  0  0  0  0  0  0  0  0  0  0
   -0.6614    2.0227   -0.2643 C   0  0  0  0  0  0  0  0  0  0  0  0
    0.4238   -1.9996    0.0871 C   0  0  0  0  0  0  0  0  0  0  0  0
   -1.3753    0.8238   -0.8825 C   0  0  0  0  0  0  0  0  0  0  0  0
   -0.9823   -1.6953   -0.4200 C   0  0  0  0  0  0  0  0  0  0  0  0
   -1.4873   -0.3537    0.0641 C   0  0  0  0  0  0  0  0  0  0  0  0
    2.0533    1.5234    1.4972 H   0  0  0  0  0  0  0  0  0  0  0  0
    0.6114    0.5509    1.4691 H   0  0  0  0  0  0  0  0  0  0  0  0
    2.7047   -0.7452    1.1104 H   0  0  0  0  0  0  0  0  0  0  0  0
    3.0940    0.2238   -0.2981 H   0  0  0  0  0  0  0  0  0  0  0  0
    1.2346    1.6353   -1.2423 H   0  0  0  0  0  0  0  0  0  0  0  0
    1.2702    2.8941   -0.0306 H   0  0  0  0  0  0  0  0  0  0  0  0
    2.2747   -1.9195   -0.9853 H   0  0  0  0  0  0  0  0  0  0  0  0
    1.1413   -0.7089   -1.5272 H   0  0  0  0  0  0  0  0  0  0  0  0
   -0.9091    2.9033   -0.8706 H   0  0  0  0  0  0  0  0  0  0  0  0
   -1.0344    2.2264    0.7464 H   0  0  0  0  0  0  0  0  0  0  0  0
    0.4783   -1.8622    1.1732 H   0  0  0  0  0  0  0  0  0  0  0  0
    0.6100   -3.0658   -0.0957 H   0  0  0  0  0  0  0  0  0  0  0  0
   -0.8831    0.5218   -1.8121 H   0  0  0  0  0  0  0  0  0  0  0  0
   -2.4018    1.1031   -1.1486 H   0  0  0  0  0  0  0  0  0  0  0  0
   -1.6794   -2.4535   -0.0427 H   0  0  0  0  0  0  0  0  0  0  0  0
   -1.0391   -1.7470   -1.5124 H   0  0  0  0  0  0  0  0  0  0  0  0
  1 10  2  0  0  0  0
  2  3  1  0  0  0  0
  2  4  1  0  0  0  0
  2 11  1  0  0  0  0
  2 12  1  0  0  0  0
  3  5  1  0  0  0  0
  3 13  1  0  0  0  0
  3 14  1  0  0  0  0
  4  6  1  0  0  0  0
  4 15  1  0  0  0  0
  4 16  1  0  0  0  0
  5  7  1  0  0  0  0
  5 17  1  0  0  0  0
  5 18  1  0  0  0  0
  6  8  1  0  0  0  0
  6 19  1  0  0  0  0
  6 20  1  0  0  0  0
  7  9  1  0  0  0  0
  7 21  1  0  0  0  0
  7 22  1  0  0  0  0
  8 10  1  0  0  0  0
  8 23  1  0  0  0  0
  8 24  1  0  0  0  0
  9 10  1  0  0  0  0
  9 25  1  0  0  0  0
  9 26  1  0  0  0  0
M  END
> <PUBCHEM_COMPOUND_CID>
76877

> <PUBCHEM_CONFORMER_RMSD>
0.4

> <PUBCHEM_CONFORMER_DIVERSEORDER>
2
14
7
9
22
20
8
18
11
15
1
19
21
16
13
17
6
3
5
12
10
4

> <PUBCHEM_MMFF94_PARTIAL_CHARGES>
4
1 -0.57
10 0.45
8 0.06
9 0.06

> <PUBCHEM_EFFECTIVE_ROTOR_COUNT>
1.6

> <PUBCHEM_PHARMACOPHORE_FEATURES>
1
1 1 acceptor

> <PUBCHEM_HEAVY_ATOM_COUNT>
10

> <PUBCHEM_ATOM_DEF_STEREO_COUNT>
0

> <PUBCHEM_ATOM_UDEF_STEREO_COUNT>
0

> <PUBCHEM_BOND_DEF_STEREO_COUNT>
0

> <PUBCHEM_BOND_UDEF_STEREO_COUNT>
0

> <PUBCHEM_ISOTOPIC_ATOM_COUNT>
0

> <PUBCHEM_COMPONENT_COUNT>
1

> <PUBCHEM_CACTVS_TAUTO_COUNT>
2

> <PUBCHEM_CONFORMER_ID>
00012C4D00000002

> <PUBCHEM_MMFF94_ENERGY>
15.4021

> <PUBCHEM_FEATURE_SELFOVERLAP>
5.074

> <PUBCHEM_SHAPE_FINGERPRINT>
16945 1 18412824672721639590
18185500 45 16392107375257604756
21922407 69 16056297527489241388
241688 4 18339353192571851858
2748010 2 18195243304548741438
2897 32 15670125202419123692
5084963 1 18200020897320033138
528862 383 17756158026185079057
66348 1 18050562937415639236

> <PUBCHEM_SHAPE_MULTIPOLES>
199.93
2.52
2.43
0.94
0.43
0.17
0.1
-0.09
0.19
0.01
-0.22
-0.18
0
0.36

> <PUBCHEM_SHAPE_SELFOVERLAP>
380.451

> <PUBCHEM_SHAPE_VOLUME>
121.6

> <PUBCHEM_COORDINATE_TYPE>
2
5
10

$$$$
