77153
  -OEChem-11232108443D

 41 41  0     0  0  0  0  0  0999 V2000
    2.3255    0.1682   -1.4288 O   0  0  0  0  0  0  0  0  0  0  0  0
   -2.2468   -0.2422   -0.8343 C   0  0  0  0  0  0  0  0  0  0  0  0
   -2.7306    0.5226    0.4001 C   0  0  0  0  0  0  0  0  0  0  0  0
   -2.4183   -1.7621   -0.7501 C   0  0  0  0  0  0  0  0  0  0  0  0
   -2.6259    2.0502    0.2652 C   0  0  0  0  0  0  0  0  0  0  0  0
   -1.8230   -2.4650    0.4752 C   0  0  0  0  0  0  0  0  0  0  0  0
   -1.2826    2.5989   -0.2341 C   0  0  0  0  0  0  0  0  0  0  0  0
   -0.3666   -2.1460    0.8290 C   0  0  0  0  0  0  0  0  0  0  0  0
   -0.0755    2.1231    0.5761 C   0  0  0  0  0  0  0  0  0  0  0  0
    0.6288   -2.3594   -0.3119 C   0  0  0  0  0  0  0  0  0  0  0  0
    1.2470    2.5630   -0.0627 C   0  0  0  0  0  0  0  0  0  0  0  0
    2.0961   -2.2095    0.1223 C   0  0  0  0  0  0  0  0  0  0  0  0
    2.4196    1.7055    0.4138 C   0  0  0  0  0  0  0  0  0  0  0  0
    2.4707   -0.8630    0.7481 C   0  0  0  0  0  0  0  0  0  0  0  0
    2.3815    0.3155   -0.2079 C   0  0  0  0  0  0  0  0  0  0  0  0
   -2.7984    0.1154   -1.7130 H   0  0  0  0  0  0  0  0  0  0  0  0
   -1.1937   -0.0226   -1.0301 H   0  0  0  0  0  0  0  0  0  0  0  0
   -2.1695    0.2112    1.2868 H   0  0  0  0  0  0  0  0  0  0  0  0
   -3.7783    0.2645    0.5985 H   0  0  0  0  0  0  0  0  0  0  0  0
   -1.9870   -2.2046   -1.6567 H   0  0  0  0  0  0  0  0  0  0  0  0
   -3.4901   -1.9954   -0.7858 H   0  0  0  0  0  0  0  0  0  0  0  0
   -2.8548    2.4986    1.2400 H   0  0  0  0  0  0  0  0  0  0  0  0
   -3.4088    2.3948   -0.4219 H   0  0  0  0  0  0  0  0  0  0  0  0
   -1.9156   -3.5478    0.3208 H   0  0  0  0  0  0  0  0  0  0  0  0
   -2.4439   -2.2365    1.3507 H   0  0  0  0  0  0  0  0  0  0  0  0
   -1.3210    3.6951   -0.2132 H   0  0  0  0  0  0  0  0  0  0  0  0
   -1.1560    2.3193   -1.2871 H   0  0  0  0  0  0  0  0  0  0  0  0
   -0.0796   -2.7810    1.6768 H   0  0  0  0  0  0  0  0  0  0  0  0
   -0.3057   -1.1171    1.1894 H   0  0  0  0  0  0  0  0  0  0  0  0
   -0.0887    1.0354    0.6529 H   0  0  0  0  0  0  0  0  0  0  0  0
   -0.1370    2.5086    1.6007 H   0  0  0  0  0  0  0  0  0  0  0  0
    0.4206   -1.6660   -1.1322 H   0  0  0  0  0  0  0  0  0  0  0  0
    0.4957   -3.3694   -0.7190 H   0  0  0  0  0  0  0  0  0  0  0  0
    1.4339    3.6121    0.1958 H   0  0  0  0  0  0  0  0  0  0  0  0
    1.1766    2.5124   -1.1558 H   0  0  0  0  0  0  0  0  0  0  0  0
    2.7345   -2.3963   -0.7502 H   0  0  0  0  0  0  0  0  0  0  0  0
    2.3258   -3.0000    0.8479 H   0  0  0  0  0  0  0  0  0  0  0  0
    2.4199    1.6288    1.5062 H   0  0  0  0  0  0  0  0  0  0  0  0
    3.3704    2.1635    0.1193 H   0  0  0  0  0  0  0  0  0  0  0  0
    3.5091   -0.9091    1.0964 H   0  0  0  0  0  0  0  0  0  0  0  0
    1.8421   -0.6612    1.6205 H   0  0  0  0  0  0  0  0  0  0  0  0
  1 15  2  0  0  0  0
  2  3  1  0  0  0  0
  2  4  1  0  0  0  0
  2 16  1  0  0  0  0
  2 17  1  0  0  0  0
  3  5  1  0  0  0  0
  3 18  1  0  0  0  0
  3 19  1  0  0  0  0
  4  6  1  0  0  0  0
  4 20  1  0  0  0  0
  4 21  1  0  0  0  0
  5  7  1  0  0  0  0
  5 22  1  0  0  0  0
  5 23  1  0  0  0  0
  6  8  1  0  0  0  0
  6 24  1  0  0  0  0
  6 25  1  0  0  0  0
  7  9  1  0  0  0  0
  7 26  1  0  0  0  0
  7 27  1  0  0  0  0
  8 10  1  0  0  0  0
  8 28  1  0  0  0  0
  8 29  1  0  0  0  0
  9 11  1  0  0  0  0
  9 30  1  0  0  0  0
  9 31  1  0  0  0  0
 10 12  1  0  0  0  0
 10 32  1  0  0  0  0
 10 33  1  0  0  0  0
 11 13  1  0  0  0  0
 11 34  1  0  0  0  0
 11 35  1  0  0  0  0
 12 14  1  0  0  0  0
 12 36  1  0  0  0  0
 12 37  1  0  0  0  0
 13 15  1  0  0  0  0
 13 38  1  0  0  0  0
 13 39  1  0  0  0  0
 14 15  1  0  0  0  0
 14 40  1  0  0  0  0
 14 41  1  0  0  0  0
M  END
> <PUBCHEM_COMPOUND_CID>
77153

> <PUBCHEM_CONFORMER_RMSD>
0.6

> <PUBCHEM_CONFORMER_DIVERSEORDER>
1
43
41
34
48
51
7
45
29
44
36
47
17
38
13
32
46
22
39
23
49
14
26
33
50
20
25
4
42
27
12
21
18
30
35
37
16
6
5
10
9
28
19
3
40
15
11
31
8
24
2

> <PUBCHEM_MMFF94_PARTIAL_CHARGES>
4
1 -0.57
13 0.06
14 0.06
15 0.45

> <PUBCHEM_EFFECTIVE_ROTOR_COUNT>
2.6

> <PUBCHEM_PHARMACOPHORE_FEATURES>
1
1 1 acceptor

> <PUBCHEM_HEAVY_ATOM_COUNT>
15

> <PUBCHEM_ATOM_DEF_STEREO_COUNT>
0

> <PUBCHEM_ATOM_UDEF_STEREO_COUNT>
0

> <PUBCHEM_BOND_DEF_STEREO_COUNT>
0

> <PUBCHEM_BOND_UDEF_STEREO_COUNT>
0

> <PUBCHEM_ISOTOPIC_ATOM_COUNT>
0

> <PUBCHEM_COMPONENT_COUNT>
1

> <PUBCHEM_CACTVS_TAUTO_COUNT>
2

> <PUBCHEM_CONFORMER_ID>
00012D6100000001

> <PUBCHEM_MMFF94_ENERGY>
10.0171

> <PUBCHEM_FEATURE_SELFOVERLAP>
5.074

> <PUBCHEM_SHAPE_FINGERPRINT>
10967382 1 17978790112536413137
11321824 6 17692232059284728461
1420 336 18338795619869979867
14251705 54 17472426452214248089
14251711 518 17688863142920117779
14251745 187 18199181987106927496
15775835 57 18267873791268223821
192875 21 18194650805146840807
22721475 48 17688875658417752081
22802520 49 18200613439677433742
2334 1 18122906705140492761
238 59 16828368227646596087
2748010 2 18050568739779338537
2803657 2 18120631566395419383
2897 32 18410012104650440661
44154327 71 17979081487713525329
66348 1 18266176321408434473
7832392 63 18197210343720436391
8199 65 17905046949935239168

> <PUBCHEM_SHAPE_MULTIPOLES>
302.82
4.56
4.03
0.96
0.14
0.2
0.12
0.21
0.21
0.54
-0.37
-0.08
-0.15
-0.21

> <PUBCHEM_SHAPE_SELFOVERLAP>
569.777

> <PUBCHEM_SHAPE_VOLUME>
185.6

> <PUBCHEM_COORDINATE_TYPE>
2
5
10

$$$$
