77151
  -OEChem-11232108423D

 17 16  0     0  0  0  0  0  0999 V2000
   -1.2224   -0.4335   -1.0810 S   0  0  0  0  0  0  0  0  0  0  0  0
    1.2221   -0.4294    1.0823 S   0  0  0  0  0  0  0  0  0  0  0  0
   -0.0002    0.8156   -0.0016 S   0  0  0  0  0  0  0  0  0  0  0  0
   -2.6150   -0.6549    0.0522 C   0  0  0  0  0  0  0  0  0  0  0  0
    2.6152   -0.6550   -0.0497 C   0  0  0  0  0  0  0  0  0  0  0  0
   -3.2664    0.6794    0.3628 C   0  0  0  0  0  0  0  0  0  0  0  0
    3.2667    0.6779   -0.3651 C   0  0  0  0  0  0  0  0  0  0  0  0
   -3.3417   -1.3135   -0.4342 H   0  0  0  0  0  0  0  0  0  0  0  0
   -2.2831   -1.1543    0.9679 H   0  0  0  0  0  0  0  0  0  0  0  0
    3.3416   -1.3118    0.4394 H   0  0  0  0  0  0  0  0  0  0  0  0
    2.2835   -1.1578   -0.9636 H   0  0  0  0  0  0  0  0  0  0  0  0
   -2.6386    1.3259    0.9824 H   0  0  0  0  0  0  0  0  0  0  0  0
   -3.5450    1.2218   -0.5472 H   0  0  0  0  0  0  0  0  0  0  0  0
   -4.1879    0.5073    0.9306 H   0  0  0  0  0  0  0  0  0  0  0  0
    2.6388    1.3223   -0.9869 H   0  0  0  0  0  0  0  0  0  0  0  0
    3.5452    1.2237    0.5431 H   0  0  0  0  0  0  0  0  0  0  0  0
    4.1882    0.5039   -0.9321 H   0  0  0  0  0  0  0  0  0  0  0  0
  1  3  1  0  0  0  0
  1  4  1  0  0  0  0
  2  3  1  0  0  0  0
  2  5  1  0  0  0  0
  4  6  1  0  0  0  0
  4  8  1  0  0  0  0
  4  9  1  0  0  0  0
  5  7  1  0  0  0  0
  5 10  1  0  0  0  0
  5 11  1  0  0  0  0
  6 12  1  0  0  0  0
  6 13  1  0  0  0  0
  6 14  1  0  0  0  0
  7 15  1  0  0  0  0
  7 16  1  0  0  0  0
  7 17  1  0  0  0  0
M  END
> <PUBCHEM_COMPOUND_CID>
77151

> <PUBCHEM_CONFORMER_RMSD>
0.6

> <PUBCHEM_CONFORMER_DIVERSEORDER>
6
39
40
57
16
15
35
56
29
45
7
18
53
44
30
52
48
28
17
49
43
36
54
10
23
5
55
37
46
22
2
21
25
47
24
38
13
9
41
8
1
14
19
42
32
34
20
33
31
4
26
3
27
11
50
12
51

> <PUBCHEM_MMFF94_PARTIAL_CHARGES>
4
1 -0.23
2 -0.23
4 0.23
5 0.23

> <PUBCHEM_EFFECTIVE_ROTOR_COUNT>
4

> <PUBCHEM_PHARMACOPHORE_FEATURES>
3
1 6 hydrophobe
1 7 hydrophobe
5 1 2 3 4 5 hydrophobe

> <PUBCHEM_HEAVY_ATOM_COUNT>
7

> <PUBCHEM_ATOM_DEF_STEREO_COUNT>
0

> <PUBCHEM_ATOM_UDEF_STEREO_COUNT>
0

> <PUBCHEM_BOND_DEF_STEREO_COUNT>
0

> <PUBCHEM_BOND_UDEF_STEREO_COUNT>
0

> <PUBCHEM_ISOTOPIC_ATOM_COUNT>
0

> <PUBCHEM_COMPONENT_COUNT>
1

> <PUBCHEM_CACTVS_TAUTO_COUNT>
1

> <PUBCHEM_CONFORMER_ID>
00012D5F00000006

> <PUBCHEM_MMFF94_ENERGY>
-14.4176

> <PUBCHEM_FEATURE_SELFOVERLAP>
15.223

> <PUBCHEM_SHAPE_FINGERPRINT>
12897270 3 15719385114281742167
12932741 1 15697707211742647522
12932764 1 18338784671950797985
14390081 3 15574985157068244670
15310529 11 16660912305850995595
177051 138 10881398733765034048
18342897 137 14908174278667267293
190213 19 18410854360616579492
20651381 32 14692572121782183024
3248919 1 18338503196974217250

> <PUBCHEM_SHAPE_MULTIPOLES>
155.61
5.75
1.05
1.05
0
0
0.07
-0.01
0.52
-0.01
-0.12
0.01
0
0.38

> <PUBCHEM_SHAPE_SELFOVERLAP>
234.252

> <PUBCHEM_SHAPE_VOLUME>
116

> <PUBCHEM_COORDINATE_TYPE>
2
5
10

$$$$
