77224
  -OEChem-11232108413D

 34 33  0     0  0  0  0  0  0999 V2000
    1.5235   -1.2648   -0.2441 O   0  0  0  0  0  0  0  0  0  0  0  0
    1.4699    1.0564    0.1984 O   0  0  0  0  0  0  0  0  0  0  0  0
   -1.2143   -0.1894    0.0119 C   0  0  0  0  0  0  0  0  0  0  0  0
   -0.2662    0.0286   -1.1747 C   0  0  0  0  0  0  0  0  0  0  0  0
   -2.6730   -0.2411   -0.4481 C   0  0  0  0  0  0  0  0  0  0  0  0
    1.2156    0.0345   -0.7694 C   0  0  0  0  0  0  0  0  0  0  0  0
   -3.6177   -0.4932    0.7269 C   0  0  0  0  0  0  0  0  0  0  0  0
   -5.0706   -0.5121    0.2794 C   0  0  0  0  0  0  0  0  0  0  0  0
    2.8802   -1.3751    0.1662 C   0  0  0  0  0  0  0  0  0  0  0  0
    1.1647    2.3617   -0.2725 C   0  0  0  0  0  0  0  0  0  0  0  0
    3.1204   -2.7693    0.7050 C   0  0  0  0  0  0  0  0  0  0  0  0
    1.4674    3.3637    0.8211 C   0  0  0  0  0  0  0  0  0  0  0  0
   -1.0940    0.6172    0.7442 H   0  0  0  0  0  0  0  0  0  0  0  0
   -0.9636   -1.1273    0.5217 H   0  0  0  0  0  0  0  0  0  0  0  0
   -0.4176   -0.7990   -1.8808 H   0  0  0  0  0  0  0  0  0  0  0  0
   -0.5434    0.9390   -1.7152 H   0  0  0  0  0  0  0  0  0  0  0  0
   -2.9361    0.7052   -0.9363 H   0  0  0  0  0  0  0  0  0  0  0  0
   -2.7972   -1.0355   -1.1941 H   0  0  0  0  0  0  0  0  0  0  0  0
    1.8388    0.2066   -1.6562 H   0  0  0  0  0  0  0  0  0  0  0  0
   -3.4862    0.2879    1.4848 H   0  0  0  0  0  0  0  0  0  0  0  0
   -3.3741   -1.4506    1.2019 H   0  0  0  0  0  0  0  0  0  0  0  0
   -5.7284   -0.6947    1.1349 H   0  0  0  0  0  0  0  0  0  0  0  0
   -5.3553    0.4448   -0.1698 H   0  0  0  0  0  0  0  0  0  0  0  0
   -5.2438   -1.3030   -0.4574 H   0  0  0  0  0  0  0  0  0  0  0  0
    3.1007   -0.6455    0.9526 H   0  0  0  0  0  0  0  0  0  0  0  0
    3.5401   -1.1886   -0.6881 H   0  0  0  0  0  0  0  0  0  0  0  0
    0.1050    2.4663   -0.5165 H   0  0  0  0  0  0  0  0  0  0  0  0
    1.7644    2.5848   -1.1615 H   0  0  0  0  0  0  0  0  0  0  0  0
    4.1579   -2.8901    1.0290 H   0  0  0  0  0  0  0  0  0  0  0  0
    2.4591   -2.9741    1.5534 H   0  0  0  0  0  0  0  0  0  0  0  0
    2.8993   -3.5214   -0.0595 H   0  0  0  0  0  0  0  0  0  0  0  0
    1.2472    4.3829    0.4909 H   0  0  0  0  0  0  0  0  0  0  0  0
    0.8765    3.1470    1.7173 H   0  0  0  0  0  0  0  0  0  0  0  0
    2.5211    3.3078    1.1137 H   0  0  0  0  0  0  0  0  0  0  0  0
  1  6  1  0  0  0  0
  1  9  1  0  0  0  0
  2  6  1  0  0  0  0
  2 10  1  0  0  0  0
  3  4  1  0  0  0  0
  3  5  1  0  0  0  0
  3 13  1  0  0  0  0
  3 14  1  0  0  0  0
  4  6  1  0  0  0  0
  4 15  1  0  0  0  0
  4 16  1  0  0  0  0
  5  7  1  0  0  0  0
  5 17  1  0  0  0  0
  5 18  1  0  0  0  0
  6 19  1  0  0  0  0
  7  8  1  0  0  0  0
  7 20  1  0  0  0  0
  7 21  1  0  0  0  0
  8 22  1  0  0  0  0
  8 23  1  0  0  0  0
  8 24  1  0  0  0  0
  9 11  1  0  0  0  0
  9 25  1  0  0  0  0
  9 26  1  0  0  0  0
 10 12  1  0  0  0  0
 10 27  1  0  0  0  0
 10 28  1  0  0  0  0
 11 29  1  0  0  0  0
 11 30  1  0  0  0  0
 11 31  1  0  0  0  0
 12 32  1  0  0  0  0
 12 33  1  0  0  0  0
 12 34  1  0  0  0  0
M  END
> <PUBCHEM_COMPOUND_CID>
77224

> <PUBCHEM_CONFORMER_RMSD>
0.8

> <PUBCHEM_CONFORMER_DIVERSEORDER>
1
38
50
51
58
36
19
64
22
59
3
60
45
31
44
2
41
14
43
26
17
29
30
55
42
21
6
56
34
62
48
10
46
54
13
47
18
9
40
33
23
20
49
11
12
63
61
52
53
57
4
25
27
32
28
24
39
35
8
37
16
15
7
5

> <PUBCHEM_MMFF94_PARTIAL_CHARGES>
5
1 -0.56
10 0.28
2 -0.56
6 0.56
9 0.28

> <PUBCHEM_EFFECTIVE_ROTOR_COUNT>
8

> <PUBCHEM_PHARMACOPHORE_FEATURES>
4
1 1 acceptor
1 2 acceptor
1 8 hydrophobe
4 3 4 5 7 hydrophobe

> <PUBCHEM_HEAVY_ATOM_COUNT>
12

> <PUBCHEM_ATOM_DEF_STEREO_COUNT>
0

> <PUBCHEM_ATOM_UDEF_STEREO_COUNT>
0

> <PUBCHEM_BOND_DEF_STEREO_COUNT>
0

> <PUBCHEM_BOND_UDEF_STEREO_COUNT>
0

> <PUBCHEM_ISOTOPIC_ATOM_COUNT>
0

> <PUBCHEM_COMPONENT_COUNT>
1

> <PUBCHEM_CACTVS_TAUTO_COUNT>
1

> <PUBCHEM_CONFORMER_ID>
00012DA800000001

> <PUBCHEM_MMFF94_ENERGY>
10.2013

> <PUBCHEM_FEATURE_SELFOVERLAP>
20.335

> <PUBCHEM_SHAPE_FINGERPRINT>
12507560 14 18341331093910789903
12824470 246 17387970863856419426
12932764 1 18338241561047351455
13533116 47 18335426803081103051
136203 1 17763179138162734928
17041 49 18270130011051610841
17841504 4 18409730642743040301
19021347 4 17546439446225450896
20645477 70 18260827107746929975
20671657 1 18269842076032610725
20871998 22 18198629830548875798
21524375 3 17625818640600264308
23500284 5 17828760638767660562
23526113 38 17386014961250254992
305870 269 18053094305251579352
31174 14 18408881867164057509
3286 77 18334014978157509863
57672749 33 18341604936904370856
58734985 188 18411975845650463202
58734987 33 18410291367840111824
58734987 43 18412267216310997238
7364860 26 18339926016681343348
81228 2 17691686688854015180

> <PUBCHEM_SHAPE_MULTIPOLES>
235.22
7.04
3.14
0.96
10.3
2.23
0.08
-4.36
-1.88
-4.83
-1.2
-0.03
0.08
-0.08

> <PUBCHEM_SHAPE_SELFOVERLAP>
419.814

> <PUBCHEM_SHAPE_VOLUME>
152.8

> <PUBCHEM_COORDINATE_TYPE>
2
5
10

$$$$
