77289
  -OEChem-11232108463D

 30 29  0     0  0  0  0  0  0999 V2000
   -4.5905   -0.7415    0.0332 S   0  0  0  0  0  0  0  0  0  0  0  0
    0.6731   -0.4035   -0.0717 C   0  0  0  0  0  0  0  0  0  0  0  0
    1.9427    0.4529   -0.0625 C   0  0  0  0  0  0  0  0  0  0  0  0
   -0.6161    0.4191   -0.0113 C   0  0  0  0  0  0  0  0  0  0  0  0
    3.2323   -0.3705   -0.0486 C   0  0  0  0  0  0  0  0  0  0  0  0
   -1.8518   -0.4862    0.0001 C   0  0  0  0  0  0  0  0  0  0  0  0
    4.4641    0.5322    0.0335 C   0  0  0  0  0  0  0  0  0  0  0  0
   -3.1335    0.3412    0.0248 C   0  0  0  0  0  0  0  0  0  0  0  0
    5.7479   -0.2807    0.0863 C   0  0  0  0  0  0  0  0  0  0  0  0
   -5.8681    0.5368    0.0162 C   0  0  0  0  0  0  0  0  0  0  0  0
    0.6674   -1.0247   -0.9759 H   0  0  0  0  0  0  0  0  0  0  0  0
    0.7002   -1.0902    0.7836 H   0  0  0  0  0  0  0  0  0  0  0  0
    1.9398    1.1103   -0.9407 H   0  0  0  0  0  0  0  0  0  0  0  0
    1.9232    1.1044    0.8201 H   0  0  0  0  0  0  0  0  0  0  0  0
   -0.6583    1.0933   -0.8752 H   0  0  0  0  0  0  0  0  0  0  0  0
   -0.6103    1.0455    0.8889 H   0  0  0  0  0  0  0  0  0  0  0  0
    3.2831   -0.9888   -0.9528 H   0  0  0  0  0  0  0  0  0  0  0  0
    3.2202   -1.0530    0.8099 H   0  0  0  0  0  0  0  0  0  0  0  0
   -1.8089   -1.1430    0.8781 H   0  0  0  0  0  0  0  0  0  0  0  0
   -1.8359   -1.1276   -0.8903 H   0  0  0  0  0  0  0  0  0  0  0  0
    4.4946    1.1998   -0.8355 H   0  0  0  0  0  0  0  0  0  0  0  0
    4.4045    1.1647    0.9270 H   0  0  0  0  0  0  0  0  0  0  0  0
   -3.1562    0.9726    0.9192 H   0  0  0  0  0  0  0  0  0  0  0  0
   -3.1783    0.9882   -0.8576 H   0  0  0  0  0  0  0  0  0  0  0  0
    5.8547   -0.9034   -0.8078 H   0  0  0  0  0  0  0  0  0  0  0  0
    5.7628   -0.9342    0.9643 H   0  0  0  0  0  0  0  0  0  0  0  0
    6.6154    0.3842    0.1430 H   0  0  0  0  0  0  0  0  0  0  0  0
   -5.7839    1.1721    0.9019 H   0  0  0  0  0  0  0  0  0  0  0  0
   -6.8528    0.0620    0.0222 H   0  0  0  0  0  0  0  0  0  0  0  0
   -5.7835    1.1488   -0.8856 H   0  0  0  0  0  0  0  0  0  0  0  0
  1  8  1  0  0  0  0
  1 10  1  0  0  0  0
  2  3  1  0  0  0  0
  2  4  1  0  0  0  0
  2 11  1  0  0  0  0
  2 12  1  0  0  0  0
  3  5  1  0  0  0  0
  3 13  1  0  0  0  0
  3 14  1  0  0  0  0
  4  6  1  0  0  0  0
  4 15  1  0  0  0  0
  4 16  1  0  0  0  0
  5  7  1  0  0  0  0
  5 17  1  0  0  0  0
  5 18  1  0  0  0  0
  6  8  1  0  0  0  0
  6 19  1  0  0  0  0
  6 20  1  0  0  0  0
  7  9  1  0  0  0  0
  7 21  1  0  0  0  0
  7 22  1  0  0  0  0
  8 23  1  0  0  0  0
  8 24  1  0  0  0  0
  9 25  1  0  0  0  0
  9 26  1  0  0  0  0
  9 27  1  0  0  0  0
 10 28  1  0  0  0  0
 10 29  1  0  0  0  0
 10 30  1  0  0  0  0
M  END
> <PUBCHEM_COMPOUND_CID>
77289

> <PUBCHEM_CONFORMER_RMSD>
0.6

> <PUBCHEM_CONFORMER_DIVERSEORDER>
1
350
34
239
380
189
390
414
397
7
187
203
409
42
323
246
103
125
165
256
224
364
346
100
13
349
3
225
92
20
352
240
232
38
337
167
62
326
33
87
341
356
2
354
372
68
336
252
6
403
36
371
58
80
206
160
140
26
151
211
226
32
302
231
314
44
178
141
415
343
71
30
91
191
285
266
399
115
35
175
118
155
25
264
324
17
47
280
229
404
180
19
363
123
133
112
11
392
156
154
353
209
57
76
158
41
228
413
53
101
121
357
173
218
411
95
4
321
389
8
27
297
157
227
24
196
215
251
105
126
370
79
401
63
384
22
416
39
94
130
361
307
16
200
45
116
334
170
162
327
377
309
258
120
128
379
212
88
18
54
294
21
214
241
398
85
412
344
174
268
201
75
293
311
9
207
77
315
296
10
146
188
335
262
330
345
366
98
355
93
69
169
66
138
67
329
183
395
82
313
134
60
84
300
46
305
358
129
393
195
78
339
119
265
29
59
396
340
50
208
271
109
269
48
376
15
386
176
243
245
142
394
97
111
332
150
291
328
172
382
338
122
99
28
312
198
168
14
223
136
292
365
12
306
368
148
65
381
190
318
184
182
108
192
295
219
161
55
83
253
52
104
202
388
301
247
261
197
257
124
5
317
96
64
278
319
276
374
70
310
177
186
402
86
81
152
164
73
308
387
221
23
194
159
204
213
284
385
37
322
181
210
166
325
205
263
289
408
248
283
113
250
132
254
220
137
316
333
275
298
135
216
237
400
106
375
217
233
287
383
40
31
72
147
359
267
348
49
144
61
89
255
331
102
127
405
153
193
43
290
199
342
360
114
222
299
117
391
131
143
238
320
171
347
110
406
56
149
369
362
259
51
242
272
185
107
90
273
179
367
274
260
407
270
288
378
304
234
163
410
373
351
139
303
74
145
282
235
244
286
279
281
249
277
230
236

> <PUBCHEM_MMFF94_PARTIAL_CHARGES>
3
1 -0.46
10 0.23
8 0.23

> <PUBCHEM_EFFECTIVE_ROTOR_COUNT>
7

> <PUBCHEM_PHARMACOPHORE_FEATURES>
2
1 10 hydrophobe
1 9 hydrophobe

> <PUBCHEM_HEAVY_ATOM_COUNT>
10

> <PUBCHEM_ATOM_DEF_STEREO_COUNT>
0

> <PUBCHEM_ATOM_UDEF_STEREO_COUNT>
0

> <PUBCHEM_BOND_DEF_STEREO_COUNT>
0

> <PUBCHEM_BOND_UDEF_STEREO_COUNT>
0

> <PUBCHEM_ISOTOPIC_ATOM_COUNT>
0

> <PUBCHEM_COMPONENT_COUNT>
1

> <PUBCHEM_CACTVS_TAUTO_COUNT>
1

> <PUBCHEM_CONFORMER_ID>
00012DE900000001

> <PUBCHEM_MMFF94_ENERGY>
1.4728

> <PUBCHEM_FEATURE_SELFOVERLAP>
10.149

> <PUBCHEM_SHAPE_FINGERPRINT>
12815109 37 18202563981731129193
14123238 8 18410856568229730678
15501527 16 18339081485242595033
17834072 33 18341613771266950684
17834076 25 18410573985172556643
187816 3 15285358418424299301
20645477 70 17988085474538802126
20719005 15 18410011044088644782
20767249 13 18410573993751961230
20767249 213 13542460977528109634
22485316 2 18412543215109674239
23402539 116 18343578560339337367
366044 4 18411136948074703123
42788 4 18410856568467139973
8209 1 18412262835454826796

> <PUBCHEM_SHAPE_MULTIPOLES>
209.64
14.43
0.85
0.63
0.04
0.03
0
-0.26
-0.42
-0.31
0
-0.03
0.01
0

> <PUBCHEM_SHAPE_SELFOVERLAP>
353.225

> <PUBCHEM_SHAPE_VOLUME>
142

> <PUBCHEM_COORDINATE_TYPE>
2
5
10

$$$$
