77698
  -OEChem-11232111213D

 21 21  0     0  0  0  0  0  0999 V2000
    3.2260   -0.0803    0.0134 O   0  0  0  0  0  0  0  0  0  0  0  0
    1.1802   -1.7835   -0.0064 O   0  0  0  0  0  0  0  0  0  0  0  0
   -0.5598   -0.1969   -0.0026 C   0  0  0  0  0  0  0  0  0  0  0  0
    0.8424   -0.5824   -0.0068 C   0  0  0  0  0  0  0  0  0  0  0  0
    1.9335    0.4965   -0.0140 C   0  0  0  0  0  0  0  0  0  0  0  0
   -0.9121    1.1528   -0.0049 C   0  0  0  0  0  0  0  0  0  0  0  0
   -1.5526   -1.1768    0.0034 C   0  0  0  0  0  0  0  0  0  0  0  0
   -2.2569    1.5227   -0.0011 C   0  0  0  0  0  0  0  0  0  0  0  0
   -2.8976   -0.8068    0.0071 C   0  0  0  0  0  0  0  0  0  0  0  0
   -3.2496    0.5430    0.0049 C   0  0  0  0  0  0  0  0  0  0  0  0
    4.2465    0.9118    0.0071 C   0  0  0  0  0  0  0  0  0  0  0  0
    1.8086    1.1231    0.8760 H   0  0  0  0  0  0  0  0  0  0  0  0
    1.8277    1.0904   -0.9286 H   0  0  0  0  0  0  0  0  0  0  0  0
   -0.1743    1.9487   -0.0110 H   0  0  0  0  0  0  0  0  0  0  0  0
   -1.3041   -2.2348    0.0052 H   0  0  0  0  0  0  0  0  0  0  0  0
   -2.5318    2.5735   -0.0032 H   0  0  0  0  0  0  0  0  0  0  0  0
   -3.6709   -1.5694    0.0117 H   0  0  0  0  0  0  0  0  0  0  0  0
   -4.2968    0.8310    0.0076 H   0  0  0  0  0  0  0  0  0  0  0  0
    5.2162    0.4072    0.0287 H   0  0  0  0  0  0  0  0  0  0  0  0
    4.1649    1.5507    0.8916 H   0  0  0  0  0  0  0  0  0  0  0  0
    4.1868    1.5166   -0.9028 H   0  0  0  0  0  0  0  0  0  0  0  0
  1  5  1  0  0  0  0
  1 11  1  0  0  0  0
  2  4  2  0  0  0  0
  3  4  1  0  0  0  0
  3  6  2  0  0  0  0
  3  7  1  0  0  0  0
  4  5  1  0  0  0  0
  5 12  1  0  0  0  0
  5 13  1  0  0  0  0
  6  8  1  0  0  0  0
  6 14  1  0  0  0  0
  7  9  2  0  0  0  0
  7 15  1  0  0  0  0
  8 10  2  0  0  0  0
  8 16  1  0  0  0  0
  9 10  1  0  0  0  0
  9 17  1  0  0  0  0
 10 18  1  0  0  0  0
 11 19  1  0  0  0  0
 11 20  1  0  0  0  0
 11 21  1  0  0  0  0
M  END
> <PUBCHEM_COMPOUND_CID>
77698

> <PUBCHEM_CONFORMER_RMSD>
0.6

> <PUBCHEM_CONFORMER_DIVERSEORDER>
1
11
9
12
4
5
6
10
2
3
7
8

> <PUBCHEM_MMFF94_PARTIAL_CHARGES>
16
1 -0.56
10 -0.15
11 0.28
14 0.15
15 0.15
16 0.15
17 0.15
18 0.15
2 -0.57
3 0.09
4 0.42
5 0.34
6 -0.15
7 -0.15
8 -0.15
9 -0.15

> <PUBCHEM_EFFECTIVE_ROTOR_COUNT>
3

> <PUBCHEM_PHARMACOPHORE_FEATURES>
3
1 1 acceptor
1 2 acceptor
6 3 6 7 8 9 10 rings

> <PUBCHEM_HEAVY_ATOM_COUNT>
11

> <PUBCHEM_ATOM_DEF_STEREO_COUNT>
0

> <PUBCHEM_ATOM_UDEF_STEREO_COUNT>
0

> <PUBCHEM_BOND_DEF_STEREO_COUNT>
0

> <PUBCHEM_BOND_UDEF_STEREO_COUNT>
0

> <PUBCHEM_ISOTOPIC_ATOM_COUNT>
0

> <PUBCHEM_COMPONENT_COUNT>
1

> <PUBCHEM_CACTVS_TAUTO_COUNT>
2

> <PUBCHEM_CONFORMER_ID>
00012F8200000001

> <PUBCHEM_MMFF94_ENERGY>
28.8024

> <PUBCHEM_FEATURE_SELFOVERLAP>
15.231

> <PUBCHEM_SHAPE_FINGERPRINT>
10608611 8 18339359669467086044
11062470 55 16949997041181535045
11132069 177 18408038528744808028
12346645 44 18409729560553687130
12897270 3 18412825785012615685
12932764 1 17418081118352268394
13024252 1 15140960656297727469
13380535 21 18341060609554656747
13380535 76 18409448072375966155
14325111 11 18410856555751030148
14390081 3 18413107234193239737
14897335 6 18338230475161779559
15219456 202 18200883876371753502
15775835 57 18411984641458726880
16945 1 18410296921522871909
170605 34 18334858290553897114
18186145 218 17846788429274867032
20871998 184 18200599206403838719
21501502 16 18340200770060765515
22485316 2 9583525300307484692
23402539 116 18337664325837868847
23402655 69 18270103614647099925
23463225 33 18333729092206954184
23552423 10 18190741938515783515
2748010 2 18193280697994870599
369184 2 16443062785895628193
6333449 129 18413386549101996445
7364860 26 18197498420267680782

> <PUBCHEM_SHAPE_MULTIPOLES>
214.64
6.2
1.53
0.6
5.31
0.1
0
-1.6
-0.03
-0.41
0
-0.04
-0.02
0

> <PUBCHEM_SHAPE_SELFOVERLAP>
438.227

> <PUBCHEM_SHAPE_VOLUME>
124.7

> <PUBCHEM_COORDINATE_TYPE>
2
5
10

$$$$
