77775
  -OEChem-11232108443D

  8  7  0     0  0  0  0  0  0999 V2000
   -1.9249   -0.4065    0.0597 S   0  0  0  0  0  0  0  0  0  0  0  0
    1.7156   -0.2329    0.2614 O   0  0  0  0  0  0  0  0  0  0  0  0
   -0.4947    0.6948    0.0898 C   0  0  0  0  0  0  0  0  0  0  0  0
    0.7040   -0.0554   -0.4108 C   0  0  0  0  0  0  0  0  0  0  0  0
   -0.3152    1.0416    1.1109 H   0  0  0  0  0  0  0  0  0  0  0  0
   -0.6683    1.5585   -0.5572 H   0  0  0  0  0  0  0  0  0  0  0  0
    0.6486   -0.4243   -1.4501 H   0  0  0  0  0  0  0  0  0  0  0  0
   -2.8125    0.4831    0.5278 H   0  0  0  0  0  0  0  0  0  0  0  0
  1  3  1  0  0  0  0
  1  8  1  0  0  0  0
  2  4  2  0  0  0  0
  3  4  1  0  0  0  0
  3  5  1  0  0  0  0
  3  6  1  0  0  0  0
  4  7  1  0  0  0  0
M  END
> <PUBCHEM_COMPOUND_CID>
77775

> <PUBCHEM_CONFORMER_RMSD>
0.4

> <PUBCHEM_CONFORMER_DIVERSEORDER>
2
3
1

> <PUBCHEM_MMFF94_PARTIAL_CHARGES>
6
1 -0.41
2 -0.57
3 0.29
4 0.45
7 0.06
8 0.18

> <PUBCHEM_EFFECTIVE_ROTOR_COUNT>
1

> <PUBCHEM_PHARMACOPHORE_FEATURES>
1
1 2 acceptor

> <PUBCHEM_HEAVY_ATOM_COUNT>
4

> <PUBCHEM_ATOM_DEF_STEREO_COUNT>
0

> <PUBCHEM_ATOM_UDEF_STEREO_COUNT>
0

> <PUBCHEM_BOND_DEF_STEREO_COUNT>
0

> <PUBCHEM_BOND_UDEF_STEREO_COUNT>
0

> <PUBCHEM_ISOTOPIC_ATOM_COUNT>
0

> <PUBCHEM_COMPONENT_COUNT>
1

> <PUBCHEM_CACTVS_TAUTO_COUNT>
3

> <PUBCHEM_CONFORMER_ID>
00012FCF00000002

> <PUBCHEM_MMFF94_ENERGY>
2.7531

> <PUBCHEM_FEATURE_SELFOVERLAP>
5.074

> <PUBCHEM_SHAPE_FINGERPRINT>
139733 1 9583524204700317109
20096714 4 10592040258598685059
21015797 1 9438528299030864981
5460574 1 9871754589436701679

> <PUBCHEM_SHAPE_MULTIPOLES>
80.3
2.43
0.8
0.67
0.32
0.07
0.03
-0.51
-0.18
0.14
-0.01
0.01
-0.01
-0.02

> <PUBCHEM_SHAPE_SELFOVERLAP>
126.618

> <PUBCHEM_SHAPE_VOLUME>
57.9

> <PUBCHEM_COORDINATE_TYPE>
2
5
10

$$$$
