77840
  -OEChem-11232109233D

 14 14  0     0  0  0  0  0  0999 V2000
   -0.1582    1.0558   -0.0052 N   0  0  0  0  0  0  0  0  0  0  0  0
    1.7730   -0.9782    0.0039 N   0  0  0  0  0  0  0  0  0  0  0  0
   -0.4961   -0.2490   -0.0049 C   0  0  0  0  0  0  0  0  0  0  0  0
    0.4525   -1.2480   -0.0006 C   0  0  0  0  0  0  0  0  0  0  0  0
   -1.9136   -0.5608   -0.0063 C   0  0  0  0  0  0  0  0  0  0  0  0
    1.1623    1.3256   -0.0006 C   0  0  0  0  0  0  0  0  0  0  0  0
    2.1108    0.3267    0.0038 C   0  0  0  0  0  0  0  0  0  0  0  0
   -2.9307    0.3279    0.0100 C   0  0  0  0  0  0  0  0  0  0  0  0
    0.1963   -2.3015    0.0004 H   0  0  0  0  0  0  0  0  0  0  0  0
   -2.1745   -1.6168   -0.0196 H   0  0  0  0  0  0  0  0  0  0  0  0
    1.4345    2.3738   -0.0007 H   0  0  0  0  0  0  0  0  0  0  0  0
    3.1717    0.5444    0.0073 H   0  0  0  0  0  0  0  0  0  0  0  0
   -3.9572   -0.0239    0.0082 H   0  0  0  0  0  0  0  0  0  0  0  0
   -2.7667    1.3997    0.0252 H   0  0  0  0  0  0  0  0  0  0  0  0
  1  3  2  0  0  0  0
  1  6  1  0  0  0  0
  2  4  2  0  0  0  0
  2  7  1  0  0  0  0
  3  4  1  0  0  0  0
  3  5  1  0  0  0  0
  4  9  1  0  0  0  0
  5  8  2  0  0  0  0
  5 10  1  0  0  0  0
  6  7  2  0  0  0  0
  6 11  1  0  0  0  0
  7 12  1  0  0  0  0
  8 13  1  0  0  0  0
  8 14  1  0  0  0  0
M  END
> <PUBCHEM_COMPOUND_CID>
77840

> <PUBCHEM_CONFORMER_RMSD>
0.4

> <PUBCHEM_CONFORMER_DIVERSEORDER>
1
2

> <PUBCHEM_MMFF94_PARTIAL_CHARGES>
14
1 -0.62
10 0.15
11 0.15
12 0.15
13 0.15
14 0.15
2 -0.62
3 0.34
4 0.16
5 -0.18
6 0.16
7 0.16
8 -0.3
9 0.15

> <PUBCHEM_EFFECTIVE_ROTOR_COUNT>
1

> <PUBCHEM_PHARMACOPHORE_FEATURES>
4
1 1 acceptor
1 2 acceptor
1 8 hydrophobe
6 1 2 3 4 6 7 rings

> <PUBCHEM_HEAVY_ATOM_COUNT>
8

> <PUBCHEM_ATOM_DEF_STEREO_COUNT>
0

> <PUBCHEM_ATOM_UDEF_STEREO_COUNT>
0

> <PUBCHEM_BOND_DEF_STEREO_COUNT>
0

> <PUBCHEM_BOND_UDEF_STEREO_COUNT>
0

> <PUBCHEM_ISOTOPIC_ATOM_COUNT>
0

> <PUBCHEM_COMPONENT_COUNT>
1

> <PUBCHEM_CACTVS_TAUTO_COUNT>
1

> <PUBCHEM_CONFORMER_ID>
0001301000000001

> <PUBCHEM_MMFF94_ENERGY>
19.9254

> <PUBCHEM_FEATURE_SELFOVERLAP>
20.301

> <PUBCHEM_SHAPE_FINGERPRINT>
14390081 3 18271804665886777273
18185500 45 18342454850417584887
20096714 4 18339643472189178214
21040471 1 18194401327776387204
23402655 69 18268696256885400133
23552423 10 18333734610786463311
29004967 10 18334298664535793907

> <PUBCHEM_SHAPE_MULTIPOLES>
154.67
3.38
1.32
0.6
1.86
0.02
0
0.28
-0.01
-0.43
0
0.02
0
0

> <PUBCHEM_SHAPE_SELFOVERLAP>
316.31

> <PUBCHEM_SHAPE_VOLUME>
88.4

> <PUBCHEM_COORDINATE_TYPE>
2
5
10

$$$$
