778574
  -OEChem-11232109003D

 31 31  0     0  0  0  0  0  0999 V2000
   -2.2816    0.0687    0.1327 O   0  0  0  0  0  0  0  0  0  0  0  0
   -1.4267   -2.0768    0.0687 O   0  0  0  0  0  0  0  0  0  0  0  0
   -4.6113    0.7145    0.1903 C   0  0  0  0  0  0  0  0  0  0  0  0
   -3.6083   -0.4416    0.1458 C   0  0  0  0  0  0  0  0  0  0  0  0
   -4.4753    1.6179   -1.0373 C   0  0  0  0  0  0  0  0  0  0  0  0
   -6.0372    0.1787    0.2995 C   0  0  0  0  0  0  0  0  0  0  0  0
   -1.2862   -0.8644    0.0933 C   0  0  0  0  0  0  0  0  0  0  0  0
    2.4994   -0.2564    0.0172 C   0  0  0  0  0  0  0  0  0  0  0  0
    0.0102   -0.1494    0.0871 C   0  0  0  0  0  0  0  0  0  0  0  0
    1.1514   -0.8513    0.0389 C   0  0  0  0  0  0  0  0  0  0  0  0
    2.6735    1.0456    0.4581 C   0  0  0  0  0  0  0  0  0  0  0  0
    3.5666   -1.0104   -0.4437 C   0  0  0  0  0  0  0  0  0  0  0  0
    3.9493    1.6089    0.4374 C   0  0  0  0  0  0  0  0  0  0  0  0
    4.8424   -0.4469   -0.4643 C   0  0  0  0  0  0  0  0  0  0  0  0
    5.0337    0.8628   -0.0238 C   0  0  0  0  0  0  0  0  0  0  0  0
   -4.3966    1.3284    1.0743 H   0  0  0  0  0  0  0  0  0  0  0  0
   -3.7375   -1.0762    1.0312 H   0  0  0  0  0  0  0  0  0  0  0  0
   -3.7731   -1.0523   -0.7507 H   0  0  0  0  0  0  0  0  0  0  0  0
   -5.1989    2.4391   -0.9960 H   0  0  0  0  0  0  0  0  0  0  0  0
   -4.6510    1.0587   -1.9626 H   0  0  0  0  0  0  0  0  0  0  0  0
   -3.4759    2.0615   -1.0938 H   0  0  0  0  0  0  0  0  0  0  0  0
   -6.7580    1.0008    0.3633 H   0  0  0  0  0  0  0  0  0  0  0  0
   -6.1535   -0.4370    1.1977 H   0  0  0  0  0  0  0  0  0  0  0  0
   -6.2997   -0.4351   -0.5689 H   0  0  0  0  0  0  0  0  0  0  0  0
   -0.0265    0.9336    0.0988 H   0  0  0  0  0  0  0  0  0  0  0  0
    1.1225   -1.9380    0.0016 H   0  0  0  0  0  0  0  0  0  0  0  0
    1.8636    1.6555    0.8453 H   0  0  0  0  0  0  0  0  0  0  0  0
    3.4334   -2.0313   -0.7915 H   0  0  0  0  0  0  0  0  0  0  0  0
    4.1000    2.6269    0.7850 H   0  0  0  0  0  0  0  0  0  0  0  0
    5.6870   -1.0277   -0.8233 H   0  0  0  0  0  0  0  0  0  0  0  0
    6.0274    1.3010   -0.0388 H   0  0  0  0  0  0  0  0  0  0  0  0
  1  4  1  0  0  0  0
  1  7  1  0  0  0  0
  2  7  2  0  0  0  0
  3  4  1  0  0  0  0
  3  5  1  0  0  0  0
  3  6  1  0  0  0  0
  3 16  1  0  0  0  0
  4 17  1  0  0  0  0
  4 18  1  0  0  0  0
  5 19  1  0  0  0  0
  5 20  1  0  0  0  0
  5 21  1  0  0  0  0
  6 22  1  0  0  0  0
  6 23  1  0  0  0  0
  6 24  1  0  0  0  0
  7  9  1  0  0  0  0
  8 10  1  0  0  0  0
  8 11  2  0  0  0  0
  8 12  1  0  0  0  0
  9 10  2  0  0  0  0
  9 25  1  0  0  0  0
 10 26  1  0  0  0  0
 11 13  1  0  0  0  0
 11 27  1  0  0  0  0
 12 14  2  0  0  0  0
 12 28  1  0  0  0  0
 13 15  2  0  0  0  0
 13 29  1  0  0  0  0
 14 15  1  0  0  0  0
 14 30  1  0  0  0  0
 15 31  1  0  0  0  0
M  END
> <PUBCHEM_COMPOUND_CID>
778574

> <PUBCHEM_CONFORMER_RMSD>
0.6

> <PUBCHEM_CONFORMER_DIVERSEORDER>
1
25
34
23
2
13
22
31
21
32
18
3
26
35
20
8
33
17
10
36
11
14
28
4
7
15
19
30
16
9
12
6
29
5
27
24

> <PUBCHEM_MMFF94_PARTIAL_CHARGES>
19
1 -0.43
10 -0.18
11 -0.15
12 -0.15
13 -0.15
14 -0.15
15 -0.15
2 -0.57
25 0.15
26 0.15
27 0.15
28 0.15
29 0.15
30 0.15
31 0.15
4 0.28
7 0.71
8 0.03
9 -0.14

> <PUBCHEM_EFFECTIVE_ROTOR_COUNT>
5

> <PUBCHEM_PHARMACOPHORE_FEATURES>
3
1 2 acceptor
3 3 5 6 hydrophobe
6 8 11 12 13 14 15 rings

> <PUBCHEM_HEAVY_ATOM_COUNT>
15

> <PUBCHEM_ATOM_DEF_STEREO_COUNT>
0

> <PUBCHEM_ATOM_UDEF_STEREO_COUNT>
0

> <PUBCHEM_BOND_DEF_STEREO_COUNT>
1

> <PUBCHEM_BOND_UDEF_STEREO_COUNT>
0

> <PUBCHEM_ISOTOPIC_ATOM_COUNT>
0

> <PUBCHEM_COMPONENT_COUNT>
1

> <PUBCHEM_CACTVS_TAUTO_COUNT>
1

> <PUBCHEM_CONFORMER_ID>
000BE14E00000001

> <PUBCHEM_MMFF94_ENERGY>
33.2834

> <PUBCHEM_FEATURE_SELFOVERLAP>
15.223

> <PUBCHEM_SHAPE_FINGERPRINT>
10014705 185 18411417349340828963
100836 57 18334017211260857364
10354089 29 17530685411303980776
10803635 8 13686300137120838521
11287383 113 18342460361156109299
11471102 20 18202004335287969026
12500047 106 18340766048066017098
12596602 18 15430043166535131525
12730499 353 18411145722692953898
12916748 109 18409452466501751105
13081056 2 18410011022672051493
13167372 99 17987807306449357153
13675066 3 18187090571773436715
14123238 8 11530483332757509152
14123255 352 18260823761924896773
14252887 29 12685085961037488208
15242439 84 18341899593193728398
15501527 16 18409449202231667041
17834072 33 18060416941091639031
17834072 8 18273222988974063228
19433438 28 18259705597143260833
19489759 90 17095523989967373577
200 152 16487257655568427771
20281389 69 18187362138508781596
20645477 56 18408604785896692399
20645477 70 17917437488651318286
21033648 29 18336535071614614361
212847 35 18407761439335687088
21503847 285 17458349667121764724
22289505 5 18343300341037968860
23402539 116 18131064939906008349
23402655 69 18131632305154407572
23559900 14 18201720652650985266
2916195 48 18335698351797366697
29717793 49 16487265352661616108
300161 21 18130783490899645786
3545911 37 18412266150810889658
4028521 119 18411135822898493785
4047638 21 18411139138850506202
4214541 1 18341050804255128731
42788 4 18411702080029285603
495365 180 17561072644895491058
5104073 3 18410572924453181794
522135 26 18343585131787148870
542803 24 17603307063560247390
59755656 520 17967248715295503635
633830 44 18041276681799635198
77779 3 18340770437517169474
8272917 22 17988649553899745718
90127 26 18187091671263894280

> <PUBCHEM_SHAPE_MULTIPOLES>
296.95
13.73
1.55
0.75
8.64
0.04
0.08
4.48
0.67
-0.16
0.07
0.17
0.14
0.93

> <PUBCHEM_SHAPE_SELFOVERLAP>
600.815

> <PUBCHEM_SHAPE_VOLUME>
173.9

> <PUBCHEM_COORDINATE_TYPE>
2
5
10

$$$$
