78067
  -OEChem-11232108513D

 32 32  0     0  0  0  0  0  0999 V2000
    3.6673    1.0240   -0.0786 O   0  0  0  0  0  0  0  0  0  0  0  0
    2.7162   -1.0843    0.3262 O   0  0  0  0  0  0  0  0  0  0  0  0
    0.0542    0.0866    0.4517 C   0  0  0  0  0  0  0  0  0  0  0  0
    1.2710    0.7941   -0.1444 C   0  0  0  0  0  0  0  0  0  0  0  0
   -1.2460    0.5827   -0.1853 C   0  0  0  0  0  0  0  0  0  0  0  0
    2.5589    0.3293    0.5078 C   0  0  0  0  0  0  0  0  0  0  0  0
   -2.4590   -0.1547    0.3863 C   0  0  0  0  0  0  0  0  0  0  0  0
   -3.7828    0.2518   -0.2676 C   0  0  0  0  0  0  0  0  0  0  0  0
    4.6520    0.0105   -0.2708 C   0  0  0  0  0  0  0  0  0  0  0  0
    3.8282   -1.2145   -0.5591 C   0  0  0  0  0  0  0  0  0  0  0  0
   -4.9852   -0.5374    0.2519 C   0  0  0  0  0  0  0  0  0  0  0  0
   -6.2748   -0.0881   -0.4183 C   0  0  0  0  0  0  0  0  0  0  0  0
    0.1387   -0.9962    0.3004 H   0  0  0  0  0  0  0  0  0  0  0  0
    0.0200    0.2605    1.5341 H   0  0  0  0  0  0  0  0  0  0  0  0
    1.1747    1.8812   -0.0352 H   0  0  0  0  0  0  0  0  0  0  0  0
    1.3122    0.5954   -1.2232 H   0  0  0  0  0  0  0  0  0  0  0  0
   -1.3571    1.6601   -0.0143 H   0  0  0  0  0  0  0  0  0  0  0  0
   -1.2042    0.4293   -1.2705 H   0  0  0  0  0  0  0  0  0  0  0  0
    2.5492    0.5371    1.5837 H   0  0  0  0  0  0  0  0  0  0  0  0
   -2.5200    0.0273    1.4664 H   0  0  0  0  0  0  0  0  0  0  0  0
   -2.3173   -1.2348    0.2553 H   0  0  0  0  0  0  0  0  0  0  0  0
   -3.7038    0.1113   -1.3528 H   0  0  0  0  0  0  0  0  0  0  0  0
   -3.9493    1.3231   -0.0991 H   0  0  0  0  0  0  0  0  0  0  0  0
    5.2203   -0.0945    0.6599 H   0  0  0  0  0  0  0  0  0  0  0  0
    5.3317    0.2783   -1.0833 H   0  0  0  0  0  0  0  0  0  0  0  0
    3.4457   -1.2094   -1.5855 H   0  0  0  0  0  0  0  0  0  0  0  0
    4.3617   -2.1503   -0.3762 H   0  0  0  0  0  0  0  0  0  0  0  0
   -5.0757   -0.4039    1.3361 H   0  0  0  0  0  0  0  0  0  0  0  0
   -4.8349   -1.6073    0.0672 H   0  0  0  0  0  0  0  0  0  0  0  0
   -6.4688    0.9718   -0.2252 H   0  0  0  0  0  0  0  0  0  0  0  0
   -6.2265   -0.2372   -1.5017 H   0  0  0  0  0  0  0  0  0  0  0  0
   -7.1221   -0.6642   -0.0334 H   0  0  0  0  0  0  0  0  0  0  0  0
  1  6  1  0  0  0  0
  1  9  1  0  0  0  0
  2  6  1  0  0  0  0
  2 10  1  0  0  0  0
  3  4  1  0  0  0  0
  3  5  1  0  0  0  0
  3 13  1  0  0  0  0
  3 14  1  0  0  0  0
  4  6  1  0  0  0  0
  4 15  1  0  0  0  0
  4 16  1  0  0  0  0
  5  7  1  0  0  0  0
  5 17  1  0  0  0  0
  5 18  1  0  0  0  0
  6 19  1  0  0  0  0
  7  8  1  0  0  0  0
  7 20  1  0  0  0  0
  7 21  1  0  0  0  0
  8 11  1  0  0  0  0
  8 22  1  0  0  0  0
  8 23  1  0  0  0  0
  9 10  1  0  0  0  0
  9 24  1  0  0  0  0
  9 25  1  0  0  0  0
 10 26  1  0  0  0  0
 10 27  1  0  0  0  0
 11 12  1  0  0  0  0
 11 28  1  0  0  0  0
 11 29  1  0  0  0  0
 12 30  1  0  0  0  0
 12 31  1  0  0  0  0
 12 32  1  0  0  0  0
M  END
> <PUBCHEM_COMPOUND_CID>
78067

> <PUBCHEM_CONFORMER_RMSD>
0.8

> <PUBCHEM_CONFORMER_DIVERSEORDER>
1
54
16
60
23
63
12
8
42
5
15
34
49
55
2
39
57
35
28
62
6
43
61
4
22
13
3
41
47
32
53
45
11
64
9
59
58
33
21
46
51
30
20
52
24
19
48
18
14
7
31
44
17
50
40
36
25
29
10
56
26
38
27
37

> <PUBCHEM_MMFF94_PARTIAL_CHARGES>
5
1 -0.56
10 0.28
2 -0.56
6 0.56
9 0.28

> <PUBCHEM_EFFECTIVE_ROTOR_COUNT>
7

> <PUBCHEM_PHARMACOPHORE_FEATURES>
6
1 1 acceptor
1 12 hydrophobe
1 2 acceptor
3 3 4 5 hydrophobe
3 7 8 11 hydrophobe
5 1 2 6 9 10 rings

> <PUBCHEM_HEAVY_ATOM_COUNT>
12

> <PUBCHEM_ATOM_DEF_STEREO_COUNT>
0

> <PUBCHEM_ATOM_UDEF_STEREO_COUNT>
0

> <PUBCHEM_BOND_DEF_STEREO_COUNT>
0

> <PUBCHEM_BOND_UDEF_STEREO_COUNT>
0

> <PUBCHEM_ISOTOPIC_ATOM_COUNT>
0

> <PUBCHEM_COMPONENT_COUNT>
1

> <PUBCHEM_CACTVS_TAUTO_COUNT>
1

> <PUBCHEM_CONFORMER_ID>
000130F300000001

> <PUBCHEM_MMFF94_ENERGY>
8.9973

> <PUBCHEM_FEATURE_SELFOVERLAP>
30.499

> <PUBCHEM_SHAPE_FINGERPRINT>
10354089 29 9223229650357545654
11287383 113 17749675181121262801
114248 4 17894349986266370273
11858739 19 17988644056399213191
12714333 28 15357699699172742836
12815109 37 18408885144208162951
13167823 11 18202280325359665647
14123238 8 18408604768848607597
1420 363 17968101932534665795
14251718 22 17458347463734612395
14455015 7 18411990156640022027
15242433 33 18342457066742132999
15242439 84 18040434404284319753
15477762 27 18411985737313547852
17834072 33 18341894125457689565
17834072 8 18113332016863860415
17834076 25 14634867548723585289
20279233 1 17749115490984631530
20645477 70 18338798914421495982
212847 35 8862938381775700814
22485316 2 18341891917923562127
23402539 116 17132111334730272601
23402655 69 18334294257894086316
23557571 272 17531245015556935517
2871803 45 18187646868986124834
4047638 21 8286199453035497336
42 15 17775288253019145417
42788 4 18407759244623190605
465052 167 17703794734005256167
522135 26 18343864416029715312
5374978 207 13973962103814270394
57483677 66 18273212019643731743

> <PUBCHEM_SHAPE_MULTIPOLES>
235.22
13.3
1
0.73
13.03
0.12
0
2.16
-1.78
-0.86
-0.05
0.02
0.03
0.22

> <PUBCHEM_SHAPE_SELFOVERLAP>
441.377

> <PUBCHEM_SHAPE_VOLUME>
147.2

> <PUBCHEM_COORDINATE_TYPE>
2
5
10

$$$$
