78120
  -OEChem-11232108493D

 22 21  0     0  0  0  0  0  0999 V2000
    4.6622   -0.7910    0.1306 S   0  0  0  0  0  0  0  0  0  0  0  0
    1.9931   -0.2322   -0.3417 N   0  0  0  0  0  0  0  0  0  0  0  0
   -0.9393    0.1598    0.3262 C   0  0  0  0  0  0  0  0  0  0  0  0
   -2.3753    0.3887   -0.1495 C   0  0  0  0  0  0  0  0  0  0  0  0
    0.0416    1.2356   -0.1538 C   0  0  0  0  0  0  0  0  0  0  0  0
   -3.2912   -0.7563    0.2856 C   0  0  0  0  0  0  0  0  0  0  0  0
    1.4942    1.0088    0.2526 C   0  0  0  0  0  0  0  0  0  0  0  0
   -4.7125   -0.5543   -0.2151 C   0  0  0  0  0  0  0  0  0  0  0  0
    3.1272   -0.4592   -0.1348 C   0  0  0  0  0  0  0  0  0  0  0  0
   -0.9205    0.1206    1.4224 H   0  0  0  0  0  0  0  0  0  0  0  0
   -0.6020   -0.8211   -0.0303 H   0  0  0  0  0  0  0  0  0  0  0  0
   -2.7487    1.3382    0.2523 H   0  0  0  0  0  0  0  0  0  0  0  0
   -2.3886    0.4724   -1.2431 H   0  0  0  0  0  0  0  0  0  0  0  0
   -0.2829    2.2085    0.2355 H   0  0  0  0  0  0  0  0  0  0  0  0
   -0.0136    1.3006   -1.2481 H   0  0  0  0  0  0  0  0  0  0  0  0
   -2.9083   -1.7082   -0.1006 H   0  0  0  0  0  0  0  0  0  0  0  0
   -3.3005   -0.8299    1.3793 H   0  0  0  0  0  0  0  0  0  0  0  0
    1.5609    0.9667    1.3479 H   0  0  0  0  0  0  0  0  0  0  0  0
    2.0898    1.8668   -0.0872 H   0  0  0  0  0  0  0  0  0  0  0  0
   -4.7409   -0.5110   -1.3086 H   0  0  0  0  0  0  0  0  0  0  0  0
   -5.3499   -1.3829    0.1087 H   0  0  0  0  0  0  0  0  0  0  0  0
   -5.1379    0.3750    0.1769 H   0  0  0  0  0  0  0  0  0  0  0  0
  1  9  2  0  0  0  0
  2  7  1  0  0  0  0
  2  9  2  0  0  0  0
  3  4  1  0  0  0  0
  3  5  1  0  0  0  0
  3 10  1  0  0  0  0
  3 11  1  0  0  0  0
  4  6  1  0  0  0  0
  4 12  1  0  0  0  0
  4 13  1  0  0  0  0
  5  7  1  0  0  0  0
  5 14  1  0  0  0  0
  5 15  1  0  0  0  0
  6  8  1  0  0  0  0
  6 16  1  0  0  0  0
  6 17  1  0  0  0  0
  7 18  1  0  0  0  0
  7 19  1  0  0  0  0
  8 20  1  0  0  0  0
  8 21  1  0  0  0  0
  8 22  1  0  0  0  0
M  END
> <PUBCHEM_COMPOUND_CID>
78120

> <PUBCHEM_CONFORMER_RMSD>
0.6

> <PUBCHEM_CONFORMER_DIVERSEORDER>
1
126
120
67
26
91
112
3
122
114
14
128
77
135
31
2
57
104
38
116
131
10
107
8
111
24
102
119
130
62
86
47
137
50
29
113
35
17
118
99
13
97
65
58
4
15
94
73
115
5
82
39
138
85
43
123
109
136
72
98
125
106
75
88
101
70
21
132
110
12
59
44
127
9
80
71
105
45
84
23
11
129
46
134
83
49
7
89
30
95
74
133
6
79
61
103
41
16
48
20
42
51
96
78
76
64
18
63
121
69
124
60
92
32
100
93
117
55
56
27
25
90
40
19
53
108
87
33
34
66
68
22
28
81
52
36
37
54

> <PUBCHEM_MMFF94_PARTIAL_CHARGES>
4
1 -0.27
2 -0.55
7 0.25
9 0.57

> <PUBCHEM_EFFECTIVE_ROTOR_COUNT>
5

> <PUBCHEM_PHARMACOPHORE_FEATURES>
4
1 1 acceptor
1 2 acceptor
1 8 hydrophobe
4 3 4 5 6 hydrophobe

> <PUBCHEM_HEAVY_ATOM_COUNT>
9

> <PUBCHEM_ATOM_DEF_STEREO_COUNT>
0

> <PUBCHEM_ATOM_UDEF_STEREO_COUNT>
0

> <PUBCHEM_BOND_DEF_STEREO_COUNT>
0

> <PUBCHEM_BOND_UDEF_STEREO_COUNT>
0

> <PUBCHEM_ISOTOPIC_ATOM_COUNT>
0

> <PUBCHEM_COMPONENT_COUNT>
1

> <PUBCHEM_CACTVS_TAUTO_COUNT>
1

> <PUBCHEM_CONFORMER_ID>
0001312800000001

> <PUBCHEM_MMFF94_ENERGY>
-0.1754

> <PUBCHEM_FEATURE_SELFOVERLAP>
20.302

> <PUBCHEM_SHAPE_FINGERPRINT>
100836 57 9583516542568630738
11062470 55 11743841361062446151
114248 4 15936414450476741174
12815109 37 18410572885829844402
13690532 89 18409729560279536339
14252887 29 17560809801297123198
14390081 3 9151183043004170937
177051 138 18202003230737640438
17834072 8 18261103059664249397
18342897 14 10807931566031274218
20201158 50 18408327678617164635
20211469 26 18343021081699529745
20605781 2 9007056868164789943
20645477 70 18410011065463546975
20724930 31 18412544314742296514
20767249 213 11024103248606998163
20871998 22 17988373559269194828
21119208 17 15502376724884806322
21293036 1 16370727040906121300
22485316 2 18408601465670694786
23402539 116 17167857526610324636
23402655 69 12252174182512626939
449060 50 15195562403669747632

> <PUBCHEM_SHAPE_MULTIPOLES>
184.08
9.6
1.13
0.67
0.35
0.19
-0.01
-4.55
0.22
-0.17
-0.02
0
-0.01
0.06

> <PUBCHEM_SHAPE_SELFOVERLAP>
321.611

> <PUBCHEM_SHAPE_VOLUME>
121.5

> <PUBCHEM_COORDINATE_TYPE>
2
5
10

$$$$
