78126
  -OEChem-11232109203D

 19 19  0     0  0  0  0  0  0999 V2000
    4.1685   -0.0077   -0.1341 S   0  0  0  0  0  0  0  0  0  0  0  0
    1.4785    0.0059    0.6278 C   0  0  0  0  0  0  0  0  0  0  0  0
    0.0207    0.0024    0.3120 C   0  0  0  0  0  0  0  0  0  0  0  0
    2.4087    0.0069   -0.5967 C   0  0  0  0  0  0  0  0  0  0  0  0
   -0.6637    1.2087    0.1639 C   0  0  0  0  0  0  0  0  0  0  0  0
   -0.6582   -1.2072    0.1653 C   0  0  0  0  0  0  0  0  0  0  0  0
   -2.0271    1.2055   -0.1309 C   0  0  0  0  0  0  0  0  0  0  0  0
   -2.0215   -1.2105   -0.1296 C   0  0  0  0  0  0  0  0  0  0  0  0
   -2.7059   -0.0041   -0.2777 C   0  0  0  0  0  0  0  0  0  0  0  0
    1.7017    0.8786    1.2572 H   0  0  0  0  0  0  0  0  0  0  0  0
    1.7050   -0.8655    1.2578 H   0  0  0  0  0  0  0  0  0  0  0  0
    2.2138   -0.8719   -1.2206 H   0  0  0  0  0  0  0  0  0  0  0  0
    2.2234    0.8932   -1.2130 H   0  0  0  0  0  0  0  0  0  0  0  0
   -0.1458    2.1579    0.2736 H   0  0  0  0  0  0  0  0  0  0  0  0
   -0.1360   -2.1538    0.2761 H   0  0  0  0  0  0  0  0  0  0  0  0
   -2.5600    2.1448   -0.2469 H   0  0  0  0  0  0  0  0  0  0  0  0
   -2.5502   -2.1522   -0.2446 H   0  0  0  0  0  0  0  0  0  0  0  0
   -3.7674   -0.0066   -0.5077 H   0  0  0  0  0  0  0  0  0  0  0  0
    4.1638    1.1597    0.5259 H   0  0  0  0  0  0  0  0  0  0  0  0
  1  4  1  0  0  0  0
  1 19  1  0  0  0  0
  2  3  1  0  0  0  0
  2  4  1  0  0  0  0
  2 10  1  0  0  0  0
  2 11  1  0  0  0  0
  3  5  2  0  0  0  0
  3  6  1  0  0  0  0
  4 12  1  0  0  0  0
  4 13  1  0  0  0  0
  5  7  1  0  0  0  0
  5 14  1  0  0  0  0
  6  8  2  0  0  0  0
  6 15  1  0  0  0  0
  7  9  2  0  0  0  0
  7 16  1  0  0  0  0
  8  9  1  0  0  0  0
  8 17  1  0  0  0  0
  9 18  1  0  0  0  0
M  END
> <PUBCHEM_COMPOUND_CID>
78126

> <PUBCHEM_CONFORMER_RMSD>
0.4

> <PUBCHEM_CONFORMER_DIVERSEORDER>
1
2
4
3
5

> <PUBCHEM_MMFF94_PARTIAL_CHARGES>
15
1 -0.41
14 0.15
15 0.15
16 0.15
17 0.15
18 0.15
19 0.18
2 0.14
3 -0.14
4 0.23
5 -0.15
6 -0.15
7 -0.15
8 -0.15
9 -0.15

> <PUBCHEM_EFFECTIVE_ROTOR_COUNT>
2

> <PUBCHEM_PHARMACOPHORE_FEATURES>
1
6 3 5 6 7 8 9 rings

> <PUBCHEM_HEAVY_ATOM_COUNT>
9

> <PUBCHEM_ATOM_DEF_STEREO_COUNT>
0

> <PUBCHEM_ATOM_UDEF_STEREO_COUNT>
0

> <PUBCHEM_BOND_DEF_STEREO_COUNT>
0

> <PUBCHEM_BOND_UDEF_STEREO_COUNT>
0

> <PUBCHEM_ISOTOPIC_ATOM_COUNT>
0

> <PUBCHEM_COMPONENT_COUNT>
1

> <PUBCHEM_CACTVS_TAUTO_COUNT>
1

> <PUBCHEM_CONFORMER_ID>
0001312E00000001

> <PUBCHEM_MMFF94_ENERGY>
19.504

> <PUBCHEM_FEATURE_SELFOVERLAP>
5.074

> <PUBCHEM_SHAPE_FINGERPRINT>
11062470 55 16056882420567643514
12716758 59 18411696595271711250
12897270 3 18411981373167832734
12932764 1 18410289212014377848
13024252 1 17603308163219620171
14325111 11 18409730625811019498
15775835 57 18040434343732992276
16714656 1 18410573989747085801
20201158 50 17917714591266555014
20645464 45 17845352466698562778
21040471 1 18267010662135254593
21293036 1 18408879646623689477
23402539 116 18341322336213601604
23552423 10 18188487011627893890
2748010 2 18049990392863981211
29004967 10 16415760838119621554
369184 2 18412543210524283810
6333449 129 18342737416289530524

> <PUBCHEM_SHAPE_MULTIPOLES>
189.07
5.52
1.26
0.74
6.08
0
0
0.01
0.82
-0.87
-0.01
0.16
0
0

> <PUBCHEM_SHAPE_SELFOVERLAP>
369.819

> <PUBCHEM_SHAPE_VOLUME>
114.3

> <PUBCHEM_COORDINATE_TYPE>
2
5
10

$$$$
