78151
  -OEChem-11232109083D

 16 15  0     1  0  0  0  0  0999 V2000
    2.9035   -0.3634    0.3784 S   0  0  0  0  0  0  0  0  0  0  0  0
    0.4426    0.3135   -0.6875 N   0  0  0  0  0  0  0  0  0  0  0  0
   -0.6363    0.5041    0.2889 C   0  0  2  0  0  0  0  0  0  0  0  0
   -1.7646   -0.4875   -0.0064 C   0  0  0  0  0  0  0  0  0  0  0  0
   -1.1242    1.9430    0.1784 C   0  0  0  0  0  0  0  0  0  0  0  0
   -1.3019   -1.9366    0.0705 C   0  0  0  0  0  0  0  0  0  0  0  0
    1.4809    0.0268   -0.2224 C   0  0  0  0  0  0  0  0  0  0  0  0
   -0.2976    0.3430    1.3238 H   0  0  0  0  0  0  0  0  0  0  0  0
   -2.5807   -0.3361    0.7103 H   0  0  0  0  0  0  0  0  0  0  0  0
   -2.1783   -0.3051   -1.0060 H   0  0  0  0  0  0  0  0  0  0  0  0
   -1.4840    2.1656   -0.8323 H   0  0  0  0  0  0  0  0  0  0  0  0
   -1.9418    2.1341    0.8812 H   0  0  0  0  0  0  0  0  0  0  0  0
   -0.3143    2.6461    0.4017 H   0  0  0  0  0  0  0  0  0  0  0  0
   -0.8455   -2.1532    1.0416 H   0  0  0  0  0  0  0  0  0  0  0  0
   -0.5783   -2.1731   -0.7154 H   0  0  0  0  0  0  0  0  0  0  0  0
   -2.1571   -2.6084   -0.0573 H   0  0  0  0  0  0  0  0  0  0  0  0
  1  7  2  0  0  0  0
  2  3  1  0  0  0  0
  2  7  2  0  0  0  0
  3  4  1  0  0  0  0
  3  5  1  0  0  0  0
  3  8  1  0  0  0  0
  4  6  1  0  0  0  0
  4  9  1  0  0  0  0
  4 10  1  0  0  0  0
  5 11  1  0  0  0  0
  5 12  1  0  0  0  0
  5 13  1  0  0  0  0
  6 14  1  0  0  0  0
  6 15  1  0  0  0  0
  6 16  1  0  0  0  0
M  END
> <PUBCHEM_COMPOUND_CID>
78151

> <PUBCHEM_CONFORMER_RMSD>
0.4

> <PUBCHEM_CONFORMER_DIVERSEORDER>
1
16
14
6
18
11
9
4
17
8
5
12
19
10
2
3
13
7
15
20

> <PUBCHEM_MMFF94_PARTIAL_CHARGES>
4
1 -0.27
2 -0.55
3 0.25
7 0.57

> <PUBCHEM_EFFECTIVE_ROTOR_COUNT>
2

> <PUBCHEM_PHARMACOPHORE_FEATURES>
3
1 1 acceptor
1 2 acceptor
1 6 hydrophobe

> <PUBCHEM_HEAVY_ATOM_COUNT>
7

> <PUBCHEM_ATOM_DEF_STEREO_COUNT>
0

> <PUBCHEM_ATOM_UDEF_STEREO_COUNT>
1

> <PUBCHEM_BOND_DEF_STEREO_COUNT>
0

> <PUBCHEM_BOND_UDEF_STEREO_COUNT>
0

> <PUBCHEM_ISOTOPIC_ATOM_COUNT>
0

> <PUBCHEM_COMPONENT_COUNT>
1

> <PUBCHEM_CACTVS_TAUTO_COUNT>
1

> <PUBCHEM_CONFORMER_ID>
0001314700000001

> <PUBCHEM_MMFF94_ENERGY>
3.1658

> <PUBCHEM_FEATURE_SELFOVERLAP>
15.228

> <PUBCHEM_SHAPE_FINGERPRINT>
10857977 72 18128806620305639522
12932741 1 17846500279876728340
18185500 45 18191593153435691594
21040471 1 18122919619996421084
23552423 10 18042971054533920900
23552449 1 18342174462210330304
23552449 11 17767125680494988171
29004967 10 18122909999285339931

> <PUBCHEM_SHAPE_MULTIPOLES>
142.93
3.33
1.8
0.72
2.96
0.03
0
0.65
-0.41
-1.4
-0.13
0.1
-0.02
-0.1

> <PUBCHEM_SHAPE_SELFOVERLAP>
250.04

> <PUBCHEM_SHAPE_VOLUME>
95.5

> <PUBCHEM_COORDINATE_TYPE>
2
5
10

$$$$
