78236
  -OEChem-11232109453D

 28 27  0     0  0  0  0  0  0999 V2000
   -1.1513   -1.4665   -0.0325 O   0  0  0  0  0  0  0  0  0  0  0  0
    1.3958   -0.3331    0.0455 C   0  0  0  0  0  0  0  0  0  0  0  0
    2.6801    0.4963    0.0156 C   0  0  0  0  0  0  0  0  0  0  0  0
    0.1572    0.5595    0.0175 C   0  0  0  0  0  0  0  0  0  0  0  0
    3.9197   -0.3980    0.0094 C   0  0  0  0  0  0  0  0  0  0  0  0
   -1.1383   -0.2374    0.0079 C   0  0  0  0  0  0  0  0  0  0  0  0
   -2.4156    0.5904    0.0159 C   0  0  0  0  0  0  0  0  0  0  0  0
   -3.6940   -0.2446    0.0183 C   0  0  0  0  0  0  0  0  0  0  0  0
    5.1981    0.4225   -0.0542 C   0  0  0  0  0  0  0  0  0  0  0  0
   -4.9517    0.6110   -0.0433 C   0  0  0  0  0  0  0  0  0  0  0  0
    1.3796   -0.9605    0.9453 H   0  0  0  0  0  0  0  0  0  0  0  0
    1.3784   -1.0141   -0.8146 H   0  0  0  0  0  0  0  0  0  0  0  0
    2.7095    1.1615    0.8871 H   0  0  0  0  0  0  0  0  0  0  0  0
    2.6841    1.1333   -0.8774 H   0  0  0  0  0  0  0  0  0  0  0  0
    0.1693    1.1883   -0.8797 H   0  0  0  0  0  0  0  0  0  0  0  0
    0.1479    1.2093    0.8996 H   0  0  0  0  0  0  0  0  0  0  0  0
    3.9343   -1.0199    0.9119 H   0  0  0  0  0  0  0  0  0  0  0  0
    3.8862   -1.0760   -0.8515 H   0  0  0  0  0  0  0  0  0  0  0  0
   -2.3977    1.2323   -0.8722 H   0  0  0  0  0  0  0  0  0  0  0  0
   -2.3945    1.2309    0.9048 H   0  0  0  0  0  0  0  0  0  0  0  0
   -3.7246   -0.8684    0.9197 H   0  0  0  0  0  0  0  0  0  0  0  0
   -3.6888   -0.9311   -0.8370 H   0  0  0  0  0  0  0  0  0  0  0  0
    5.2785    1.0908    0.8091 H   0  0  0  0  0  0  0  0  0  0  0  0
    5.2293    1.0306   -0.9640 H   0  0  0  0  0  0  0  0  0  0  0  0
    6.0718   -0.2367   -0.0562 H   0  0  0  0  0  0  0  0  0  0  0  0
   -4.9691    1.2151   -0.9559 H   0  0  0  0  0  0  0  0  0  0  0  0
   -5.0074    1.2853    0.8170 H   0  0  0  0  0  0  0  0  0  0  0  0
   -5.8432   -0.0239   -0.0376 H   0  0  0  0  0  0  0  0  0  0  0  0
  1  6  2  0  0  0  0
  2  3  1  0  0  0  0
  2  4  1  0  0  0  0
  2 11  1  0  0  0  0
  2 12  1  0  0  0  0
  3  5  1  0  0  0  0
  3 13  1  0  0  0  0
  3 14  1  0  0  0  0
  4  6  1  0  0  0  0
  4 15  1  0  0  0  0
  4 16  1  0  0  0  0
  5  9  1  0  0  0  0
  5 17  1  0  0  0  0
  5 18  1  0  0  0  0
  6  7  1  0  0  0  0
  7  8  1  0  0  0  0
  7 19  1  0  0  0  0
  7 20  1  0  0  0  0
  8 10  1  0  0  0  0
  8 21  1  0  0  0  0
  8 22  1  0  0  0  0
  9 23  1  0  0  0  0
  9 24  1  0  0  0  0
  9 25  1  0  0  0  0
 10 26  1  0  0  0  0
 10 27  1  0  0  0  0
 10 28  1  0  0  0  0
M  END
> <PUBCHEM_COMPOUND_CID>
78236

> <PUBCHEM_CONFORMER_RMSD>
0.6

> <PUBCHEM_CONFORMER_DIVERSEORDER>
1
353
310
298
273
347
299
2
257
197
304
24
25
282
285
79
102
205
311
13
105
272
221
337
341
200
352
136
270
15
246
29
291
214
336
8
279
348
302
33
275
10
30
114
228
191
345
281
36
166
295
215
287
314
21
349
245
6
276
354
37
211
277
96
235
209
343
225
27
351
47
74
271
154
11
159
206
101
306
18
339
32
126
77
226
73
178
171
5
195
122
143
185
9
308
19
34
321
177
220
204
260
232
241
68
256
262
78
312
284
322
247
190
41
155
51
333
189
142
327
63
188
267
328
31
261
344
76
194
316
324
223
138
331
86
264
156
183
240
217
85
307
123
292
20
55
355
57
296
268
251
98
4
254
163
319
89
153
342
42
7
146
230
266
130
320
293
160
231
193
346
210
22
203
158
54
329
198
50
227
107
224
69
140
330
65
141
318
139
288
12
248
250
72
164
70
39
110
92
44
280
313
201
17
300
222
325
71
274
115
176
301
184
97
182
75
147
48
167
90
38
253
263
212
213
243
173
219
265
118
117
259
196
326
56
82
317
286
134
218
129
128
172
290
108
237
207
258
242
137
80
87
148
145
283
305
340
233
62
216
244
199
23
162
99
3
43
332
135
46
150
180
49
125
64
95
239
59
269
144
192
35
236
278
152
112
202
14
53
208
168
119
120
165
133
149
297
187
60
323
179
289
249
104
106
88
45
131
84
334
111
151
94
309
157
91
169
124
294
234
116
121
175
303
28
181
252
26
132
109
170
238
83
67
66
113
335
58
93
338
229
174
52
61
255
186
16
127
100
40
161
103
81
350
315

> <PUBCHEM_MMFF94_PARTIAL_CHARGES>
4
1 -0.57
4 0.06
6 0.45
7 0.06

> <PUBCHEM_EFFECTIVE_ROTOR_COUNT>
6

> <PUBCHEM_PHARMACOPHORE_FEATURES>
4
1 1 acceptor
1 10 hydrophobe
1 9 hydrophobe
4 2 3 4 5 hydrophobe

> <PUBCHEM_HEAVY_ATOM_COUNT>
10

> <PUBCHEM_ATOM_DEF_STEREO_COUNT>
0

> <PUBCHEM_ATOM_UDEF_STEREO_COUNT>
0

> <PUBCHEM_BOND_DEF_STEREO_COUNT>
0

> <PUBCHEM_BOND_UDEF_STEREO_COUNT>
0

> <PUBCHEM_ISOTOPIC_ATOM_COUNT>
0

> <PUBCHEM_COMPONENT_COUNT>
1

> <PUBCHEM_CACTVS_TAUTO_COUNT>
3

> <PUBCHEM_CONFORMER_ID>
0001319C00000001

> <PUBCHEM_MMFF94_ENERGY>
-1.4991

> <PUBCHEM_FEATURE_SELFOVERLAP>
20.298

> <PUBCHEM_SHAPE_FINGERPRINT>
11062470 55 17703791422622237796
11401426 45 18272086097892579453
12932764 1 16950828306632552324
14123238 8 18408041814378711900
17834072 33 18130785719639616852
17834076 25 18130788962656325820
18342897 14 18410293601323520937
187816 3 17060339621746150107
20279233 1 17703800232011768302
20645477 70 17774447075538386342
20719005 15 18410856559898291400
20828058 44 14851612093567985409
21119208 17 18334859424404053684
22485316 2 18341891900796583414
23402539 116 18131062732282515589
23402655 69 18130784517270391501
366044 4 18411699885427935691
42788 4 18410293609786731460

> <PUBCHEM_SHAPE_MULTIPOLES>
199.93
10.67
0.95
0.61
2.5
0.17
0
-1.83
0.19
-0.22
0.01
0.01
-0.01
-0.01

> <PUBCHEM_SHAPE_SELFOVERLAP>
357.221

> <PUBCHEM_SHAPE_VOLUME>
130

> <PUBCHEM_COORDINATE_TYPE>
2
5
10

$$$$
