78612
  -OEChem-11232108533D

 25 24  0     0  0  0  0  0  0999 V2000
   -0.0424   -0.7036    0.0006 C   0  0  0  0  0  0  0  0  0  0  0  0
   -1.3466    0.0996   -0.0051 C   0  0  0  0  0  0  0  0  0  0  0  0
    1.1733    0.2120   -0.1743 C   0  0  0  0  0  0  0  0  0  0  0  0
   -2.5651   -0.8204    0.1291 C   0  0  0  0  0  0  0  0  0  0  0  0
    2.5009   -0.5519   -0.2025 C   0  0  0  0  0  0  0  0  0  0  0  0
   -3.9148   -0.1570    0.1135 C   0  0  0  0  0  0  0  0  0  0  0  0
    3.6926    0.3477   -0.3508 C   0  0  0  0  0  0  0  0  0  0  0  0
   -4.1814    1.1435   -0.0543 C   0  0  0  0  0  0  0  0  0  0  0  0
    4.6836    0.4301    0.5439 C   0  0  0  0  0  0  0  0  0  0  0  0
    0.0470   -1.2573    0.9428 H   0  0  0  0  0  0  0  0  0  0  0  0
   -0.0607   -1.4424   -0.8097 H   0  0  0  0  0  0  0  0  0  0  0  0
   -1.3320    0.8234    0.8190 H   0  0  0  0  0  0  0  0  0  0  0  0
   -1.4129    0.6686   -0.9408 H   0  0  0  0  0  0  0  0  0  0  0  0
    1.0652    0.7837   -1.1050 H   0  0  0  0  0  0  0  0  0  0  0  0
    1.1926    0.9436    0.6438 H   0  0  0  0  0  0  0  0  0  0  0  0
   -2.5480   -1.5591   -0.6820 H   0  0  0  0  0  0  0  0  0  0  0  0
   -2.4814   -1.3829    1.0674 H   0  0  0  0  0  0  0  0  0  0  0  0
    2.4958   -1.2555   -1.0439 H   0  0  0  0  0  0  0  0  0  0  0  0
    2.5884   -1.1559    0.7093 H   0  0  0  0  0  0  0  0  0  0  0  0
   -4.7619   -0.8265    0.2508 H   0  0  0  0  0  0  0  0  0  0  0  0
    3.7487    0.9573   -1.2487 H   0  0  0  0  0  0  0  0  0  0  0  0
   -5.2084    1.4935   -0.0472 H   0  0  0  0  0  0  0  0  0  0  0  0
   -3.4033    1.8829   -0.2001 H   0  0  0  0  0  0  0  0  0  0  0  0
    5.5216    1.0975    0.3751 H   0  0  0  0  0  0  0  0  0  0  0  0
    4.6779   -0.1602    1.4535 H   0  0  0  0  0  0  0  0  0  0  0  0
  1  2  1  0  0  0  0
  1  3  1  0  0  0  0
  1 10  1  0  0  0  0
  1 11  1  0  0  0  0
  2  4  1  0  0  0  0
  2 12  1  0  0  0  0
  2 13  1  0  0  0  0
  3  5  1  0  0  0  0
  3 14  1  0  0  0  0
  3 15  1  0  0  0  0
  4  6  1  0  0  0  0
  4 16  1  0  0  0  0
  4 17  1  0  0  0  0
  5  7  1  0  0  0  0
  5 18  1  0  0  0  0
  5 19  1  0  0  0  0
  6  8  2  0  0  0  0
  6 20  1  0  0  0  0
  7  9  2  0  0  0  0
  7 21  1  0  0  0  0
  8 22  1  0  0  0  0
  8 23  1  0  0  0  0
  9 24  1  0  0  0  0
  9 25  1  0  0  0  0
M  END
> <PUBCHEM_COMPOUND_CID>
78612

> <PUBCHEM_CONFORMER_RMSD>
0.6

> <PUBCHEM_CONFORMER_DIVERSEORDER>
1
30
4
36
64
61
52
72
41
55
5
68
27
59
10
63
58
28
43
29
18
48
19
69
45
65
9
53
3
15
11
71
12
14
8
60
22
26
6
31
50
62
33
46
54
7
67
13
32
2
56
47
40
16
17
51
57
21
23
25
24
49
42
37
44
66
20
70
34
38
39
35

> <PUBCHEM_MMFF94_PARTIAL_CHARGES>
12
20 0.15
21 0.15
22 0.15
23 0.15
24 0.15
25 0.15
4 0.14
5 0.14
6 -0.29
7 -0.29
8 -0.3
9 -0.3

> <PUBCHEM_EFFECTIVE_ROTOR_COUNT>
6

> <PUBCHEM_PHARMACOPHORE_FEATURES>
2
1 8 hydrophobe
1 9 hydrophobe

> <PUBCHEM_HEAVY_ATOM_COUNT>
9

> <PUBCHEM_ATOM_DEF_STEREO_COUNT>
0

> <PUBCHEM_ATOM_UDEF_STEREO_COUNT>
0

> <PUBCHEM_BOND_DEF_STEREO_COUNT>
0

> <PUBCHEM_BOND_UDEF_STEREO_COUNT>
0

> <PUBCHEM_ISOTOPIC_ATOM_COUNT>
0

> <PUBCHEM_COMPONENT_COUNT>
1

> <PUBCHEM_CACTVS_TAUTO_COUNT>
1

> <PUBCHEM_CONFORMER_ID>
0001331400000001

> <PUBCHEM_MMFF94_ENERGY>
0.7727

> <PUBCHEM_FEATURE_SELFOVERLAP>
10.149

> <PUBCHEM_SHAPE_FINGERPRINT>
11062470 55 18272653449981750822
114248 4 16702581644812446543
11987891 38 9223237346812651340
14123238 8 18186521020486806511
14252887 29 14201391665041570920
14325111 11 18409732858872526431
14455015 7 12973879274226252864
15501527 16 18341054030371881561
177051 138 8646767794131443550
17834072 33 10375577227333110386
17834076 25 18343303669162460236
18342897 14 18334575750377889088
190213 19 17632302284712191430
20645477 70 17560808671536342390
20719005 15 18408886251998612359
20767249 213 18260266339826474325
20828058 44 17603587451826057202
21293036 1 14549019883744183378
22485316 2 18201999928018845550
23402539 116 18412818097026430892
42 15 15864066564089292922
42788 4 18411419522973978440

> <PUBCHEM_SHAPE_MULTIPOLES>
185.22
9.99
0.97
0.67
1.99
0.06
0.01
2.6
0.81
-0.58
0
0.21
0.02
0.16

> <PUBCHEM_SHAPE_SELFOVERLAP>
328.521

> <PUBCHEM_SHAPE_VOLUME>
120.5

> <PUBCHEM_COORDINATE_TYPE>
2
5
10

$$$$
