78903
  -OEChem-11232109263D

 26 26  0     0  0  0  0  0  0999 V2000
    0.5622    0.5194   -0.7435 O   0  0  0  0  0  0  0  0  0  0  0  0
    2.1061    0.5413    0.9748 O   0  0  0  0  0  0  0  0  0  0  0  0
   -0.1350   -0.5568   -0.1117 C   0  0  0  0  0  0  0  0  0  0  0  0
   -1.3281   -0.9343   -1.0034 C   0  0  0  0  0  0  0  0  0  0  0  0
   -0.6134   -0.1002    1.2761 C   0  0  0  0  0  0  0  0  0  0  0  0
   -2.3724    0.1813   -1.0803 C   0  0  0  0  0  0  0  0  0  0  0  0
   -1.6568    1.0150    1.1915 C   0  0  0  0  0  0  0  0  0  0  0  0
   -2.8337    0.6165    0.3068 C   0  0  0  0  0  0  0  0  0  0  0  0
    0.7812   -1.7035    0.0150 C   0  0  0  0  0  0  0  0  0  0  0  0
    1.6688    0.9691   -0.0849 C   0  0  0  0  0  0  0  0  0  0  0  0
    1.5279   -2.6378    0.1185 C   0  0  0  0  0  0  0  0  0  0  0  0
    2.2933    2.0900   -0.8591 C   0  0  0  0  0  0  0  0  0  0  0  0
   -1.8097   -1.8464   -0.6259 H   0  0  0  0  0  0  0  0  0  0  0  0
   -0.9848   -1.1540   -2.0228 H   0  0  0  0  0  0  0  0  0  0  0  0
    0.1738    0.2241    1.9595 H   0  0  0  0  0  0  0  0  0  0  0  0
   -1.0813   -0.9570    1.7838 H   0  0  0  0  0  0  0  0  0  0  0  0
   -3.2342   -0.1636   -1.6628 H   0  0  0  0  0  0  0  0  0  0  0  0
   -1.9542    1.0433   -1.6141 H   0  0  0  0  0  0  0  0  0  0  0  0
   -1.1942    1.9295    0.8015 H   0  0  0  0  0  0  0  0  0  0  0  0
   -2.0229    1.2498    2.1978 H   0  0  0  0  0  0  0  0  0  0  0  0
   -3.5291    1.4586    0.2169 H   0  0  0  0  0  0  0  0  0  0  0  0
   -3.3858   -0.2041    0.7815 H   0  0  0  0  0  0  0  0  0  0  0  0
    2.1907   -3.4662    0.2104 H   0  0  0  0  0  0  0  0  0  0  0  0
    1.5832    2.9154   -0.9532 H   0  0  0  0  0  0  0  0  0  0  0  0
    2.6021    1.7326   -1.8446 H   0  0  0  0  0  0  0  0  0  0  0  0
    3.1777    2.4504   -0.3259 H   0  0  0  0  0  0  0  0  0  0  0  0
  1  3  1  0  0  0  0
  1 10  1  0  0  0  0
  2 10  2  0  0  0  0
  3  4  1  0  0  0  0
  3  5  1  0  0  0  0
  3  9  1  0  0  0  0
  4  6  1  0  0  0  0
  4 13  1  0  0  0  0
  4 14  1  0  0  0  0
  5  7  1  0  0  0  0
  5 15  1  0  0  0  0
  5 16  1  0  0  0  0
  6  8  1  0  0  0  0
  6 17  1  0  0  0  0
  6 18  1  0  0  0  0
  7  8  1  0  0  0  0
  7 19  1  0  0  0  0
  7 20  1  0  0  0  0
  8 21  1  0  0  0  0
  8 22  1  0  0  0  0
  9 11  3  0  0  0  0
 10 12  1  0  0  0  0
 11 23  1  0  0  0  0
 12 24  1  0  0  0  0
 12 25  1  0  0  0  0
 12 26  1  0  0  0  0
M  END
> <PUBCHEM_COMPOUND_CID>
78903

> <PUBCHEM_CONFORMER_RMSD>
0.6

> <PUBCHEM_CONFORMER_DIVERSEORDER>
3
11
1
10
7
9
5
6
2
4
8

> <PUBCHEM_MMFF94_PARTIAL_CHARGES>
8
1 -0.43
10 0.66
11 -0.18
12 0.06
2 -0.57
23 0.18
3 0.48
9 -0.2

> <PUBCHEM_EFFECTIVE_ROTOR_COUNT>
3.2

> <PUBCHEM_PHARMACOPHORE_FEATURES>
3
1 11 hydrophobe
1 2 acceptor
6 3 4 5 6 7 8 rings

> <PUBCHEM_HEAVY_ATOM_COUNT>
12

> <PUBCHEM_ATOM_DEF_STEREO_COUNT>
0

> <PUBCHEM_ATOM_UDEF_STEREO_COUNT>
0

> <PUBCHEM_BOND_DEF_STEREO_COUNT>
0

> <PUBCHEM_BOND_UDEF_STEREO_COUNT>
0

> <PUBCHEM_ISOTOPIC_ATOM_COUNT>
0

> <PUBCHEM_COMPONENT_COUNT>
1

> <PUBCHEM_CACTVS_TAUTO_COUNT>
1

> <PUBCHEM_CONFORMER_ID>
0001343700000003

> <PUBCHEM_MMFF94_ENERGY>
18.5035

> <PUBCHEM_FEATURE_SELFOVERLAP>
15.223

> <PUBCHEM_SHAPE_FINGERPRINT>
12326174 3 17968369048855548202
12423570 1 12713392934801591723
12716758 59 17274827998937289582
12897270 3 16056609788807711341
13024252 1 13986884805609066093
137420 1 17029893998464582599
13898156 1 17703228403901977499
14128692 85 17916010270696941263
14817 1 9574998788959351305
14993402 34 17841154355036338647
15490181 8 18336826506366958314
15775835 57 18131637776589724177
16945 1 18336262353669375567
19837323 101 18051148178318041476
20653085 51 18338526346884976645
207724 885 17982167816736823391
21130352 189 17831576479308448781
228727 97 17916868044669973461
23211744 25 17842547732837381537
23211744 41 17458335377459368613
23552423 10 18341890775325312895
305870 269 18412259523739830872
369184 2 17096076025849817425
5084963 1 18272375316537186284
528862 383 18338801113133255419
68419 9 17560807576245503427
81228 2 17328875803292873602

> <PUBCHEM_SHAPE_MULTIPOLES>
235.22
3.48
2.19
1.23
0.97
0.84
0.1
-1.29
-0.23
-2.03
-0.22
0.38
-0.21
-0.61

> <PUBCHEM_SHAPE_SELFOVERLAP>
471.544

> <PUBCHEM_SHAPE_VOLUME>
135.7

> <PUBCHEM_COORDINATE_TYPE>
2
5
10

$$$$
