78954
  -OEChem-11232109223D

 34 33  0     0  0  0  0  0  0999 V2000
    5.0980    1.0516   -0.3675 O   0  0  0  0  0  0  0  0  0  0  0  0
   -1.4096   -0.1971    0.5495 C   0  0  0  0  0  0  0  0  0  0  0  0
   -2.3217   -0.1156   -0.6818 C   0  0  0  0  0  0  0  0  0  0  0  0
   -0.0174    0.3563    0.3148 C   0  0  0  0  0  0  0  0  0  0  0  0
   -3.6461   -0.7938   -0.4651 C   0  0  0  0  0  0  0  0  0  0  0  0
   -4.8118   -0.2380   -0.0845 C   0  0  0  0  0  0  0  0  0  0  0  0
    0.0332    1.8300   -0.0035 C   0  0  0  0  0  0  0  0  0  0  0  0
    1.1242   -0.3605    0.3462 C   0  0  0  0  0  0  0  0  0  0  0  0
   -6.1033   -0.9787    0.1137 C   0  0  0  0  0  0  0  0  0  0  0  0
   -4.9022    1.2444    0.1628 C   0  0  0  0  0  0  0  0  0  0  0  0
    2.4672    0.1237    0.1011 C   0  0  0  0  0  0  0  0  0  0  0  0
    3.5412   -0.6759    0.1571 C   0  0  0  0  0  0  0  0  0  0  0  0
    4.9026   -0.1347   -0.1133 C   0  0  0  0  0  0  0  0  0  0  0  0
    6.0456   -1.1116   -0.0296 C   0  0  0  0  0  0  0  0  0  0  0  0
   -1.8667    0.3410    1.3901 H   0  0  0  0  0  0  0  0  0  0  0  0
   -1.3329   -1.2449    0.8699 H   0  0  0  0  0  0  0  0  0  0  0  0
   -2.4532    0.9226   -1.0039 H   0  0  0  0  0  0  0  0  0  0  0  0
   -1.8315   -0.6140   -1.5290 H   0  0  0  0  0  0  0  0  0  0  0  0
   -3.6330   -1.8712   -0.6253 H   0  0  0  0  0  0  0  0  0  0  0  0
    0.9054    2.3335    0.4229 H   0  0  0  0  0  0  0  0  0  0  0  0
   -0.8356    2.3435    0.4248 H   0  0  0  0  0  0  0  0  0  0  0  0
    0.0149    1.9887   -1.0864 H   0  0  0  0  0  0  0  0  0  0  0  0
    1.0427   -1.4230    0.5722 H   0  0  0  0  0  0  0  0  0  0  0  0
   -5.9917   -2.0466   -0.1011 H   0  0  0  0  0  0  0  0  0  0  0  0
   -6.8767   -0.5825   -0.5520 H   0  0  0  0  0  0  0  0  0  0  0  0
   -6.4463   -0.8799    1.1485 H   0  0  0  0  0  0  0  0  0  0  0  0
   -3.9368    1.7469    0.2542 H   0  0  0  0  0  0  0  0  0  0  0  0
   -5.4641    1.7254   -0.6445 H   0  0  0  0  0  0  0  0  0  0  0  0
   -5.4319    1.4326    1.1037 H   0  0  0  0  0  0  0  0  0  0  0  0
    2.5967    1.1692   -0.1563 H   0  0  0  0  0  0  0  0  0  0  0  0
    3.4588   -1.7298    0.4010 H   0  0  0  0  0  0  0  0  0  0  0  0
    5.6975   -2.1405   -0.1552 H   0  0  0  0  0  0  0  0  0  0  0  0
    6.7580   -0.8999   -0.8321 H   0  0  0  0  0  0  0  0  0  0  0  0
    6.5375   -1.0106    0.9410 H   0  0  0  0  0  0  0  0  0  0  0  0
  1 13  2  0  0  0  0
  2  3  1  0  0  0  0
  2  4  1  0  0  0  0
  2 15  1  0  0  0  0
  2 16  1  0  0  0  0
  3  5  1  0  0  0  0
  3 17  1  0  0  0  0
  3 18  1  0  0  0  0
  4  7  1  0  0  0  0
  4  8  2  3  0  0  0
  5  6  2  0  0  0  0
  5 19  1  0  0  0  0
  6  9  1  0  0  0  0
  6 10  1  0  0  0  0
  7 20  1  0  0  0  0
  7 21  1  0  0  0  0
  7 22  1  0  0  0  0
  8 11  1  0  0  0  0
  8 23  1  0  0  0  0
  9 24  1  0  0  0  0
  9 25  1  0  0  0  0
  9 26  1  0  0  0  0
 10 27  1  0  0  0  0
 10 28  1  0  0  0  0
 10 29  1  0  0  0  0
 11 12  2  3  0  0  0
 11 30  1  0  0  0  0
 12 13  1  0  0  0  0
 12 31  1  0  0  0  0
 13 14  1  0  0  0  0
 14 32  1  0  0  0  0
 14 33  1  0  0  0  0
 14 34  1  0  0  0  0
M  END
> <PUBCHEM_COMPOUND_CID>
78954

> <PUBCHEM_CONFORMER_RMSD>
0.6

> <PUBCHEM_CONFORMER_DIVERSEORDER>
2
106
131
182
179
149
28
53
213
57
92
91
25
80
87
62
162
59
121
112
130
152
81
208
115
61
127
113
27
128
197
35
46
173
181
125
140
145
65
164
86
105
90
73
79
78
10
143
136
38
206
82
8
72
32
3
148
48
178
64
150
19
211
168
99
41
171
103
110
147
23
159
94
111
11
185
31
63
26
142
198
180
190
6
89
186
135
50
146
215
77
157
133
170
42
15
176
17
184
52
193
34
187
93
203
207
43
70
76
39
104
201
167
66
83
51
166
33
158
75
156
13
56
144
126
37
129
22
97
12
100
60
7
30
67
202
177
122
210
123
196
1
195
108
74
40
132
138
21
165
85
68
192
141
5
139
214
36
118
24
18
20
153
161
14
163
9
96
95
58
151
44
209
47
183
134
155
154
169
205
114
119
98
4
54
172
204
49
188
174
189
16
109
200
191
137
101
84
71
117
55
69
212
175
116
120
160
107
45
124
199
102
29
88
194

> <PUBCHEM_MMFF94_PARTIAL_CHARGES>
18
1 -0.57
10 0.14
11 -0.15
12 -0.14
13 0.49
14 0.06
19 0.15
2 0.14
23 0.15
3 0.14
30 0.15
31 0.15
4 -0.28
5 -0.29
6 -0.28
7 0.14
8 -0.15
9 0.14

> <PUBCHEM_EFFECTIVE_ROTOR_COUNT>
5

> <PUBCHEM_PHARMACOPHORE_FEATURES>
4
1 1 acceptor
1 7 hydrophobe
3 6 9 10 hydrophobe
4 2 3 4 5 hydrophobe

> <PUBCHEM_HEAVY_ATOM_COUNT>
14

> <PUBCHEM_ATOM_DEF_STEREO_COUNT>
0

> <PUBCHEM_ATOM_UDEF_STEREO_COUNT>
0

> <PUBCHEM_BOND_DEF_STEREO_COUNT>
0

> <PUBCHEM_BOND_UDEF_STEREO_COUNT>
2

> <PUBCHEM_ISOTOPIC_ATOM_COUNT>
0

> <PUBCHEM_COMPONENT_COUNT>
1

> <PUBCHEM_CACTVS_TAUTO_COUNT>
2

> <PUBCHEM_CONFORMER_ID>
0001346A00000002

> <PUBCHEM_MMFF94_ENERGY>
18.6496

> <PUBCHEM_FEATURE_SELFOVERLAP>
20.302

> <PUBCHEM_SHAPE_FINGERPRINT>
11287383 113 16660649586959458804
114248 4 16732700553778504983
12236239 1 18412266129304534609
124424 183 15338833188327315843
12714333 28 13839980019421695071
12815109 37 18272650151483784270
13288520 33 18411699894455297967
13533116 47 17168417165676867122
14123238 8 15791448223083921979
1420 363 17967255299231902683
14251718 22 18409449197857429089
14251731 8 18131349700590748477
14251752 14 18188766141536877085
14251764 18 18273218599791767161
14251764 46 18259983777526672962
14573314 32 16558759970454228765
15242433 33 18413387639760322390
17834072 33 18272651276659870192
17834072 8 18343013372945636837
17834076 25 18113899359988667554
187816 3 17676489440734438848
19489759 90 14405186153739677139
200 152 18411417298186193912
20612939 158 17895198852045493989
20621476 66 18058740083503330569
20645477 56 14562532890134087658
20645477 70 18188206499457756402
20767249 213 10737287943656541895
21267235 1 18411987961431445371
23035841 295 18410011030972043690
23402539 116 18411978048789331693
23536379 177 18410575067488536619
23557571 272 18270967838959708812
2916195 48 11674884415595479574
351380 180 9871748000777859471
366044 4 8718825392464676560
42788 4 18409448085255235970
4463277 17 18411418410166284497
542803 24 18334295366053618928
68521 5 18411137991783586449

> <PUBCHEM_SHAPE_MULTIPOLES>
282.24
15.49
1.29
0.71
2.82
0.44
-0.01
-3.79
-0.79
-0.23
-0.02
-0.14
-0.02
-0.24

> <PUBCHEM_SHAPE_SELFOVERLAP>
533.773

> <PUBCHEM_SHAPE_VOLUME>
175.2

> <PUBCHEM_COORDINATE_TYPE>
2
5
10

$$$$
