79117
  -OEChem-11232108463D

 34 33  0     0  0  0  0  0  0999 V2000
    0.8332    0.3044   -0.1072 O   0  0  0  0  0  0  0  0  0  0  0  0
   -1.3495    1.2066   -0.1623 O   0  0  0  0  0  0  0  0  0  0  0  0
    2.9934   -0.7252   -0.1961 C   0  0  0  0  0  0  0  0  0  0  0  0
   -3.3604   -0.0930   -0.2202 C   0  0  0  0  0  0  0  0  0  0  0  0
   -0.0085    1.3807    0.3136 C   0  0  0  0  0  0  0  0  0  0  0  0
    2.1856    0.4663    0.2983 C   0  0  0  0  0  0  0  0  0  0  0  0
   -1.9455    0.0138    0.3307 C   0  0  0  0  0  0  0  0  0  0  0  0
    4.4583   -0.6244    0.2192 C   0  0  0  0  0  0  0  0  0  0  0  0
   -4.0680   -1.3477    0.2834 C   0  0  0  0  0  0  0  0  0  0  0  0
    0.5042    2.6841   -0.2856 C   0  0  0  0  0  0  0  0  0  0  0  0
    5.2521   -1.8371   -0.2394 C   0  0  0  0  0  0  0  0  0  0  0  0
   -5.4951   -1.4284   -0.2344 C   0  0  0  0  0  0  0  0  0  0  0  0
    2.9114   -0.7946   -1.2881 H   0  0  0  0  0  0  0  0  0  0  0  0
    2.5506   -1.6492    0.1966 H   0  0  0  0  0  0  0  0  0  0  0  0
   -3.3261   -0.0900   -1.3169 H   0  0  0  0  0  0  0  0  0  0  0  0
   -3.9274    0.8024    0.0641 H   0  0  0  0  0  0  0  0  0  0  0  0
   -0.0258    1.4439    1.4086 H   0  0  0  0  0  0  0  0  0  0  0  0
    2.6257    1.3669   -0.1394 H   0  0  0  0  0  0  0  0  0  0  0  0
    2.2353    0.5350    1.3910 H   0  0  0  0  0  0  0  0  0  0  0  0
   -1.3626   -0.8579    0.0126 H   0  0  0  0  0  0  0  0  0  0  0  0
   -1.9679    0.0436    1.4263 H   0  0  0  0  0  0  0  0  0  0  0  0
    4.5317   -0.5404    1.3098 H   0  0  0  0  0  0  0  0  0  0  0  0
    4.9052    0.2813   -0.2068 H   0  0  0  0  0  0  0  0  0  0  0  0
   -4.0844   -1.3520    1.3795 H   0  0  0  0  0  0  0  0  0  0  0  0
   -3.5169   -2.2398   -0.0363 H   0  0  0  0  0  0  0  0  0  0  0  0
   -0.2517    3.4722   -0.1955 H   0  0  0  0  0  0  0  0  0  0  0  0
    1.4093    3.0432    0.2127 H   0  0  0  0  0  0  0  0  0  0  0  0
    0.7265    2.5661   -1.3522 H   0  0  0  0  0  0  0  0  0  0  0  0
    4.8511   -2.7571    0.1979 H   0  0  0  0  0  0  0  0  0  0  0  0
    5.2250   -1.9342   -1.3294 H   0  0  0  0  0  0  0  0  0  0  0  0
    6.2986   -1.7434    0.0674 H   0  0  0  0  0  0  0  0  0  0  0  0
   -6.0825   -0.5664    0.0978 H   0  0  0  0  0  0  0  0  0  0  0  0
   -5.5142   -1.4564   -1.3286 H   0  0  0  0  0  0  0  0  0  0  0  0
   -5.9825   -2.3352    0.1372 H   0  0  0  0  0  0  0  0  0  0  0  0
  1  5  1  0  0  0  0
  1  6  1  0  0  0  0
  2  5  1  0  0  0  0
  2  7  1  0  0  0  0
  3  6  1  0  0  0  0
  3  8  1  0  0  0  0
  3 13  1  0  0  0  0
  3 14  1  0  0  0  0
  4  7  1  0  0  0  0
  4  9  1  0  0  0  0
  4 15  1  0  0  0  0
  4 16  1  0  0  0  0
  5 10  1  0  0  0  0
  5 17  1  0  0  0  0
  6 18  1  0  0  0  0
  6 19  1  0  0  0  0
  7 20  1  0  0  0  0
  7 21  1  0  0  0  0
  8 11  1  0  0  0  0
  8 22  1  0  0  0  0
  8 23  1  0  0  0  0
  9 12  1  0  0  0  0
  9 24  1  0  0  0  0
  9 25  1  0  0  0  0
 10 26  1  0  0  0  0
 10 27  1  0  0  0  0
 10 28  1  0  0  0  0
 11 29  1  0  0  0  0
 11 30  1  0  0  0  0
 11 31  1  0  0  0  0
 12 32  1  0  0  0  0
 12 33  1  0  0  0  0
 12 34  1  0  0  0  0
M  END
> <PUBCHEM_COMPOUND_CID>
79117

> <PUBCHEM_CONFORMER_RMSD>
0.8

> <PUBCHEM_CONFORMER_DIVERSEORDER>
1
63
93
8
85
106
109
91
72
35
111
88
48
66
86
37
103
36
16
117
120
124
58
119
30
121
96
31
56
102
50
53
100
12
105
94
75
118
47
59
84
79
74
114
78
115
64
77
45
43
80
89
99
65
20
69
49
116
52
62
54
15
97
90
83
44
122
87
70
14
71
23
61
76
55
67
7
21
104
17
29
28
113
82
95
11
38
33
108
5
25
101
81
60
41
112
57
9
98
51
107
32
46
123
42
27
92
73
10
13
6
68
22
4
110
39
18
40
24
26
34
2
19
3

> <PUBCHEM_MMFF94_PARTIAL_CHARGES>
5
1 -0.56
2 -0.56
5 0.56
6 0.28
7 0.28

> <PUBCHEM_EFFECTIVE_ROTOR_COUNT>
8

> <PUBCHEM_PHARMACOPHORE_FEATURES>
4
1 1 acceptor
1 11 hydrophobe
1 12 hydrophobe
1 2 acceptor

> <PUBCHEM_HEAVY_ATOM_COUNT>
12

> <PUBCHEM_ATOM_DEF_STEREO_COUNT>
0

> <PUBCHEM_ATOM_UDEF_STEREO_COUNT>
0

> <PUBCHEM_BOND_DEF_STEREO_COUNT>
0

> <PUBCHEM_BOND_UDEF_STEREO_COUNT>
0

> <PUBCHEM_ISOTOPIC_ATOM_COUNT>
0

> <PUBCHEM_COMPONENT_COUNT>
1

> <PUBCHEM_CACTVS_TAUTO_COUNT>
1

> <PUBCHEM_CONFORMER_ID>
0001350D00000001

> <PUBCHEM_MMFF94_ENERGY>
9.9647

> <PUBCHEM_FEATURE_SELFOVERLAP>
20.335

> <PUBCHEM_SHAPE_FINGERPRINT>
100836 57 9439402445235171914
12032990 46 18411136926720789648
12841375 25 18408884048770203261
13690532 89 18411418436199721923
13740256 8 18410014359513435355
13955234 65 17980766253107740913
14123255 352 9295286140335943747
14178000 29 18409730677071305716
1420 369 18342178847440569766
14251710 61 18411700988870313042
14251731 8 18260824870158093965
14251752 14 17604420800531158071
14252887 29 17775011171831194414
14455015 7 18260554467623221603
15477762 27 18337109080691759917
17834072 8 18261383439508565645
193927 3 18341625814297473079
19784866 240 18411425029243501187
20112054 13 10663816381981081112
20281475 54 18411143527901173616
20374829 77 18336261262747786363
20388580 30 18334581273589949956
20605781 2 8646771097035394035
20645477 70 18190455155286302251
20671657 53 18409172138144444245
20724930 31 18342455946024531642
20767249 142 18409167709927757946
20871998 22 18411133670977772032
20871999 31 17895189970116117285
21426921 1 18192994816624846404
23402539 116 18410009892847615862
23402655 69 12251900399511074707
23403322 49 18408322155394625987
2871803 45 18259700090715833434
351380 3 18411980264887565335
4416823 128 18410573993831231913
5352402 22 16988290772430721654
59345606 38 8935001464713124859
77188 2 18412544327364467728

> <PUBCHEM_SHAPE_MULTIPOLES>
235.22
11.54
2.23
0.66
1.32
1.12
-0.01
-11.09
0.6
-0.52
0.22
0.01
0
0.16

> <PUBCHEM_SHAPE_SELFOVERLAP>
419.324

> <PUBCHEM_SHAPE_VOLUME>
153.6

> <PUBCHEM_COORDINATE_TYPE>
2
5
10

$$$$
