79148
  -OEChem-11232109113D

 16 15  0     0  0  0  0  0  0999 V2000
    3.4351    0.2690    0.0113 S   0  0  0  0  0  0  0  0  0  0  0  0
   -3.4348   -0.2698    0.0105 S   0  0  0  0  0  0  0  0  0  0  0  0
    0.6826    0.3505   -0.0135 C   0  0  0  0  0  0  0  0  0  0  0  0
   -0.6824   -0.3500   -0.0118 C   0  0  0  0  0  0  0  0  0  0  0  0
    1.8546   -0.6276    0.0014 C   0  0  0  0  0  0  0  0  0  0  0  0
   -1.8550    0.6279    0.0021 C   0  0  0  0  0  0  0  0  0  0  0  0
    0.7454    0.9929   -0.9014 H   0  0  0  0  0  0  0  0  0  0  0  0
    0.7385    1.0083    0.8635 H   0  0  0  0  0  0  0  0  0  0  0  0
   -0.7463   -0.9947   -0.8979 H   0  0  0  0  0  0  0  0  0  0  0  0
   -0.7366   -1.0057    0.8670 H   0  0  0  0  0  0  0  0  0  0  0  0
    1.8118   -1.2653    0.8900 H   0  0  0  0  0  0  0  0  0  0  0  0
    1.8266   -1.2742   -0.8813 H   0  0  0  0  0  0  0  0  0  0  0  0
   -1.8130    1.2667    0.8898 H   0  0  0  0  0  0  0  0  0  0  0  0
   -1.8267    1.2723   -0.8821 H   0  0  0  0  0  0  0  0  0  0  0  0
    4.2243   -0.8151    0.0235 H   0  0  0  0  0  0  0  0  0  0  0  0
   -3.2547   -0.8903    1.1859 H   0  0  0  0  0  0  0  0  0  0  0  0
  1  5  1  0  0  0  0
  1 15  1  0  0  0  0
  2  6  1  0  0  0  0
  2 16  1  0  0  0  0
  3  4  1  0  0  0  0
  3  5  1  0  0  0  0
  3  7  1  0  0  0  0
  3  8  1  0  0  0  0
  4  6  1  0  0  0  0
  4  9  1  0  0  0  0
  4 10  1  0  0  0  0
  5 11  1  0  0  0  0
  5 12  1  0  0  0  0
  6 13  1  0  0  0  0
  6 14  1  0  0  0  0
M  END
> <PUBCHEM_COMPOUND_CID>
79148

> <PUBCHEM_CONFORMER_RMSD>
0.4

> <PUBCHEM_CONFORMER_DIVERSEORDER>
1
11
12
5
9
8
3
2
6
10
7
4

> <PUBCHEM_MMFF94_PARTIAL_CHARGES>
6
1 -0.41
15 0.18
16 0.18
2 -0.41
5 0.23
6 0.23

> <PUBCHEM_EFFECTIVE_ROTOR_COUNT>
3

> <PUBCHEM_PHARMACOPHORE_FEATURES>
0

> <PUBCHEM_HEAVY_ATOM_COUNT>
6

> <PUBCHEM_ATOM_DEF_STEREO_COUNT>
0

> <PUBCHEM_ATOM_UDEF_STEREO_COUNT>
0

> <PUBCHEM_BOND_DEF_STEREO_COUNT>
0

> <PUBCHEM_BOND_UDEF_STEREO_COUNT>
0

> <PUBCHEM_ISOTOPIC_ATOM_COUNT>
0

> <PUBCHEM_COMPONENT_COUNT>
1

> <PUBCHEM_CACTVS_TAUTO_COUNT>
1

> <PUBCHEM_CONFORMER_ID>
0001352C00000001

> <PUBCHEM_MMFF94_ENERGY>
3.3593

> <PUBCHEM_FEATURE_SELFOVERLAP>
0

> <PUBCHEM_SHAPE_FINGERPRINT>
11062470 55 15719391737179140031
12932764 1 15697707121548197900
14325111 11 18410856529590881735
14390081 3 18342454837796557112
3248919 1 15647345095249788083
5460574 1 9223228546292383748

> <PUBCHEM_SHAPE_MULTIPOLES>
131.18
6.26
0.83
0.64
0
0
0
0
0.04
0
0
0
0
0

> <PUBCHEM_SHAPE_SELFOVERLAP>
205.53

> <PUBCHEM_SHAPE_VOLUME>
93.7

> <PUBCHEM_COORDINATE_TYPE>
2
5
10

$$$$
