79240
  -OEChem-11232109433D

 31 31  0     0  0  0  0  0  0999 V2000
   -1.0496    0.8350   -0.3036 O   0  0  0  0  0  0  0  0  0  0  0  0
   -3.1327   -0.3347   -0.1428 C   0  0  0  0  0  0  0  0  0  0  0  0
   -2.3150    0.8538    0.3426 C   0  0  0  0  0  0  0  0  0  0  0  0
    1.1085    1.8651   -0.6067 C   0  0  0  0  0  0  0  0  0  0  0  0
   -4.5157   -0.3679    0.5014 C   0  0  0  0  0  0  0  0  0  0  0  0
   -0.2361    1.9248    0.1097 C   0  0  0  0  0  0  0  0  0  0  0  0
    1.8778    0.6083   -0.2798 C   0  0  0  0  0  0  0  0  0  0  0  0
   -5.3446   -1.5316   -0.0184 C   0  0  0  0  0  0  0  0  0  0  0  0
    2.7458    0.6048    0.8009 C   0  0  0  0  0  0  0  0  0  0  0  0
    1.7021   -0.5199   -1.0655 C   0  0  0  0  0  0  0  0  0  0  0  0
    3.4566   -0.5567    1.1033 C   0  0  0  0  0  0  0  0  0  0  0  0
    2.4129   -1.6814   -0.7628 C   0  0  0  0  0  0  0  0  0  0  0  0
    3.2900   -1.6997    0.3216 C   0  0  0  0  0  0  0  0  0  0  0  0
   -2.5898   -1.2634    0.0734 H   0  0  0  0  0  0  0  0  0  0  0  0
   -3.2237   -0.2886   -1.2353 H   0  0  0  0  0  0  0  0  0  0  0  0
   -2.8341    1.7897    0.1043 H   0  0  0  0  0  0  0  0  0  0  0  0
   -2.1742    0.7938    1.4282 H   0  0  0  0  0  0  0  0  0  0  0  0
    0.9511    1.9121   -1.6921 H   0  0  0  0  0  0  0  0  0  0  0  0
    1.7081    2.7457   -0.3452 H   0  0  0  0  0  0  0  0  0  0  0  0
   -5.0459    0.5691    0.2948 H   0  0  0  0  0  0  0  0  0  0  0  0
   -4.4176   -0.4521    1.5898 H   0  0  0  0  0  0  0  0  0  0  0  0
   -0.7359    2.8679   -0.1404 H   0  0  0  0  0  0  0  0  0  0  0  0
   -0.0909    1.8836    1.1961 H   0  0  0  0  0  0  0  0  0  0  0  0
   -5.4899   -1.4574   -1.1009 H   0  0  0  0  0  0  0  0  0  0  0  0
   -4.8575   -2.4876    0.1985 H   0  0  0  0  0  0  0  0  0  0  0  0
   -6.3304   -1.5370    0.4570 H   0  0  0  0  0  0  0  0  0  0  0  0
    2.8804    1.4894    1.4167 H   0  0  0  0  0  0  0  0  0  0  0  0
    1.0221   -0.5168   -1.9125 H   0  0  0  0  0  0  0  0  0  0  0  0
    4.1392   -0.5712    1.9480 H   0  0  0  0  0  0  0  0  0  0  0  0
    2.2832   -2.5715   -1.3714 H   0  0  0  0  0  0  0  0  0  0  0  0
    3.8433   -2.6041    0.5572 H   0  0  0  0  0  0  0  0  0  0  0  0
  1  3  1  0  0  0  0
  1  6  1  0  0  0  0
  2  3  1  0  0  0  0
  2  5  1  0  0  0  0
  2 14  1  0  0  0  0
  2 15  1  0  0  0  0
  3 16  1  0  0  0  0
  3 17  1  0  0  0  0
  4  6  1  0  0  0  0
  4  7  1  0  0  0  0
  4 18  1  0  0  0  0
  4 19  1  0  0  0  0
  5  8  1  0  0  0  0
  5 20  1  0  0  0  0
  5 21  1  0  0  0  0
  6 22  1  0  0  0  0
  6 23  1  0  0  0  0
  7  9  2  0  0  0  0
  7 10  1  0  0  0  0
  8 24  1  0  0  0  0
  8 25  1  0  0  0  0
  8 26  1  0  0  0  0
  9 11  1  0  0  0  0
  9 27  1  0  0  0  0
 10 12  2  0  0  0  0
 10 28  1  0  0  0  0
 11 13  2  0  0  0  0
 11 29  1  0  0  0  0
 12 13  1  0  0  0  0
 12 30  1  0  0  0  0
 13 31  1  0  0  0  0
M  END
> <PUBCHEM_COMPOUND_CID>
79240

> <PUBCHEM_CONFORMER_RMSD>
0.6

> <PUBCHEM_CONFORMER_DIVERSEORDER>
1
16
83
17
89
80
7
51
55
85
53
64
41
66
40
35
9
92
31
50
34
94
87
42
49
91
8
5
28
22
86
43
13
3
18
70
54
32
97
29
77
74
19
2
15
95
6
96
39
38
90
48
84
52
23
81
73
44
62
78
58
59
45
20
46
47
30
24
14
37
56
33
76
71
69
93
27
67
60
98
79
99
4
68
26
100
61
75
36
25
72
12
88
21
63
10
82
11
57
65

> <PUBCHEM_MMFF94_PARTIAL_CHARGES>
15
1 -0.56
10 -0.15
11 -0.15
12 -0.15
13 -0.15
27 0.15
28 0.15
29 0.15
3 0.28
30 0.15
31 0.15
4 0.14
6 0.28
7 -0.14
9 -0.15

> <PUBCHEM_EFFECTIVE_ROTOR_COUNT>
6

> <PUBCHEM_PHARMACOPHORE_FEATURES>
3
1 1 acceptor
1 8 hydrophobe
6 7 9 10 11 12 13 rings

> <PUBCHEM_HEAVY_ATOM_COUNT>
13

> <PUBCHEM_ATOM_DEF_STEREO_COUNT>
0

> <PUBCHEM_ATOM_UDEF_STEREO_COUNT>
0

> <PUBCHEM_BOND_DEF_STEREO_COUNT>
0

> <PUBCHEM_BOND_UDEF_STEREO_COUNT>
0

> <PUBCHEM_ISOTOPIC_ATOM_COUNT>
0

> <PUBCHEM_COMPONENT_COUNT>
1

> <PUBCHEM_CACTVS_TAUTO_COUNT>
1

> <PUBCHEM_CONFORMER_ID>
0001358800000001

> <PUBCHEM_MMFF94_ENERGY>
20.7211

> <PUBCHEM_FEATURE_SELFOVERLAP>
15.223

> <PUBCHEM_SHAPE_FINGERPRINT>
10618630 7 18409450250029620429
122479 349 10807926077010361573
12363563 72 18260272927752184553
12400797 245 18342735178806768126
12616999 72 18188503482838134468
13464513 79 18341617023010939286
13764800 53 11599706411731532413
1420 369 18411984672067024755
14251710 61 18338520742063334023
14251717 144 18410012173897457523
14251740 57 17846509148884559527
14252887 29 18413672408992383704
15210252 30 9871748009342167287
15477762 27 18334015020590302476
15885798 251 18408609145679199873
177051 138 18409730642700777371
17834072 14 18338505357643512717
1798214 55 9799684892170637507
18186145 218 11819283226099948013
20281475 54 18408892823726148581
20645477 70 18187927343546438381
20671657 53 17748824103155193421
20767249 442 10952045645831221665
20871998 22 18411420570545383972
21354914 74 18335424586160189421
21501925 9 18411697690541235957
22646028 28 18334579027448284243
231179 274 10231756690750400346
23402655 69 11602824587910676890
251288 83 18342453742595519602
3009799 131 11097854048356136370
3060560 45 12396288270818555192
4990 188 12107788493053944777
633830 44 8430319022125630177
76465 3 18042115479990280978
8988823 20 17489295430696909841
94968 8 18333737917942877730

> <PUBCHEM_SHAPE_MULTIPOLES>
261.66
9.16
2.03
0.97
13.55
0.17
-0.01
-5.82
-1.8
-0.55
0.21
-0.68
-0.09
-0.02

> <PUBCHEM_SHAPE_SELFOVERLAP>
514.936

> <PUBCHEM_SHAPE_VOLUME>
157.1

> <PUBCHEM_COORDINATE_TYPE>
2
5
10

$$$$
