79509
  -OEChem-11232108463D

 28 28  0     1  0  0  0  0  0999 V2000
   -3.5857    0.6672    0.1946 O   0  0  0  0  0  0  0  0  0  0  0  0
    0.0677   -0.1137   -0.2484 C   0  0  0  0  0  0  0  0  0  0  0  0
    0.6332    1.2399    0.2029 C   0  0  0  0  0  0  0  0  0  0  0  0
    0.9557   -1.2666    0.2385 C   0  0  0  0  0  0  0  0  0  0  0  0
   -1.3665   -0.2912    0.2469 C   0  0  1  0  0  0  0  0  0  0  0  0
    2.0851    1.4183   -0.2352 C   0  0  0  0  0  0  0  0  0  0  0  0
    2.4072   -1.0839   -0.1994 C   0  0  0  0  0  0  0  0  0  0  0  0
    2.9629    0.2661    0.2431 C   0  0  0  0  0  0  0  0  0  0  0  0
   -2.2590    0.8315   -0.2888 C   0  0  0  0  0  0  0  0  0  0  0  0
   -1.9006   -1.6677   -0.1542 C   0  0  0  0  0  0  0  0  0  0  0  0
    0.0686   -0.1303   -1.3478 H   0  0  0  0  0  0  0  0  0  0  0  0
    0.5685    1.3321    1.2944 H   0  0  0  0  0  0  0  0  0  0  0  0
    0.0720    2.0739   -0.2284 H   0  0  0  0  0  0  0  0  0  0  0  0
    0.6242   -2.2267   -0.1690 H   0  0  0  0  0  0  0  0  0  0  0  0
    0.9126   -1.3421    1.3324 H   0  0  0  0  0  0  0  0  0  0  0  0
   -1.3935   -0.2481    1.3445 H   0  0  0  0  0  0  0  0  0  0  0  0
    2.4748    2.3647    0.1565 H   0  0  0  0  0  0  0  0  0  0  0  0
    2.1315    1.4822   -1.3294 H   0  0  0  0  0  0  0  0  0  0  0  0
    2.4723   -1.1646   -1.2916 H   0  0  0  0  0  0  0  0  0  0  0  0
    3.0224   -1.8894    0.2172 H   0  0  0  0  0  0  0  0  0  0  0  0
    3.9801    0.3914   -0.1446 H   0  0  0  0  0  0  0  0  0  0  0  0
    3.0325    0.2906    1.3376 H   0  0  0  0  0  0  0  0  0  0  0  0
   -1.9414    1.8132    0.0675 H   0  0  0  0  0  0  0  0  0  0  0  0
   -2.2811    0.8543   -1.3838 H   0  0  0  0  0  0  0  0  0  0  0  0
   -1.3950   -2.4763    0.3819 H   0  0  0  0  0  0  0  0  0  0  0  0
   -1.7950   -1.8407   -1.2305 H   0  0  0  0  0  0  0  0  0  0  0  0
   -2.9608   -1.7766    0.0962 H   0  0  0  0  0  0  0  0  0  0  0  0
   -4.0328    0.0244   -0.3814 H   0  0  0  0  0  0  0  0  0  0  0  0
  1  9  1  0  0  0  0
  1 28  1  0  0  0  0
  2  3  1  0  0  0  0
  2  4  1  0  0  0  0
  2  5  1  0  0  0  0
  2 11  1  0  0  0  0
  3  6  1  0  0  0  0
  3 12  1  0  0  0  0
  3 13  1  0  0  0  0
  4  7  1  0  0  0  0
  4 14  1  0  0  0  0
  4 15  1  0  0  0  0
  5  9  1  0  0  0  0
  5 10  1  0  0  0  0
  5 16  1  0  0  0  0
  6  8  1  0  0  0  0
  6 17  1  0  0  0  0
  6 18  1  0  0  0  0
  7  8  1  0  0  0  0
  7 19  1  0  0  0  0
  7 20  1  0  0  0  0
  8 21  1  0  0  0  0
  8 22  1  0  0  0  0
  9 23  1  0  0  0  0
  9 24  1  0  0  0  0
 10 25  1  0  0  0  0
 10 26  1  0  0  0  0
 10 27  1  0  0  0  0
M  END
> <PUBCHEM_COMPOUND_CID>
79509

> <PUBCHEM_CONFORMER_RMSD>
0.6

> <PUBCHEM_CONFORMER_DIVERSEORDER>
1
16
15
14
2
17
4
8
3
12
11
9
6
10
5
13
7

> <PUBCHEM_MMFF94_PARTIAL_CHARGES>
3
1 -0.68
28 0.4
9 0.28

> <PUBCHEM_EFFECTIVE_ROTOR_COUNT>
3.2

> <PUBCHEM_PHARMACOPHORE_FEATURES>
4
1 1 acceptor
1 1 donor
1 10 hydrophobe
6 2 3 4 6 7 8 rings

> <PUBCHEM_HEAVY_ATOM_COUNT>
10

> <PUBCHEM_ATOM_DEF_STEREO_COUNT>
0

> <PUBCHEM_ATOM_UDEF_STEREO_COUNT>
1

> <PUBCHEM_BOND_DEF_STEREO_COUNT>
0

> <PUBCHEM_BOND_UDEF_STEREO_COUNT>
0

> <PUBCHEM_ISOTOPIC_ATOM_COUNT>
0

> <PUBCHEM_COMPONENT_COUNT>
1

> <PUBCHEM_CACTVS_TAUTO_COUNT>
1

> <PUBCHEM_CONFORMER_ID>
0001369500000001

> <PUBCHEM_MMFF94_ENERGY>
13.8931

> <PUBCHEM_FEATURE_SELFOVERLAP>
20.297

> <PUBCHEM_SHAPE_FINGERPRINT>
11062470 55 16702297936342089161
12897270 3 18194398016224876255
12932764 1 17531237353245666454
13380535 21 18337966669838864583
13380535 76 18411133645455732127
14325111 11 18338234972029572068
14390081 3 18413105086772947249
14897335 6 18412256259712216549
15775835 57 18410580620939441468
16945 1 18336260141887831700
17844478 74 17894640218829395861
19973954 147 18337392746080452221
20201158 50 18410572855754569270
21040471 1 18194119844526266056
21501502 16 18336826510492873743
23235685 24 18412538799571921177
23402655 69 18341883062007226213
23552423 10 18261673774148414686
2748010 2 18338800121132784654
29004967 10 18410294718188870418
3248919 1 18263352732588154694
5084963 1 18127696139136217066
528886 8 18411414016572704050
53812653 166 18342451573653008928

> <PUBCHEM_SHAPE_MULTIPOLES>
199.93
4.72
1.66
0.66
1.54
0.21
-0.01
-0.65
0.08
-0.06
-0.05
-0.03
0
-0.03

> <PUBCHEM_SHAPE_SELFOVERLAP>
383.102

> <PUBCHEM_SHAPE_VOLUME>
121.8

> <PUBCHEM_COORDINATE_TYPE>
2
5
10

$$$$
