79541
  -OEChem-11232108593D

 35 34  0     0  0  0  0  0  0999 V2000
   -5.0423    0.7231   -0.0536 O   0  0  0  0  0  0  0  0  0  0  0  0
   -6.5155   -1.0630   -0.0510 O   0  0  0  0  0  0  0  0  0  0  0  0
    1.1233   -0.3662    0.0930 C   0  0  0  0  0  0  0  0  0  0  0  0
    2.4479    0.4022    0.1049 C   0  0  0  0  0  0  0  0  0  0  0  0
   -0.1071    0.5427    0.0543 C   0  0  0  0  0  0  0  0  0  0  0  0
    3.6788   -0.5063    0.0687 C   0  0  0  0  0  0  0  0  0  0  0  0
   -1.4008   -0.2756    0.0747 C   0  0  0  0  0  0  0  0  0  0  0  0
    4.9700    0.3133    0.0085 C   0  0  0  0  0  0  0  0  0  0  0  0
   -2.6331    0.6314    0.0058 C   0  0  0  0  0  0  0  0  0  0  0  0
    6.2000   -0.5912   -0.0663 C   0  0  0  0  0  0  0  0  0  0  0  0
   -3.9333   -0.1631   -0.0084 C   0  0  0  0  0  0  0  0  0  0  0  0
    7.4826    0.2197   -0.1600 C   0  0  0  0  0  0  0  0  0  0  0  0
   -6.2704    0.1330   -0.0705 C   0  0  0  0  0  0  0  0  0  0  0  0
    1.1037   -1.0331   -0.7781 H   0  0  0  0  0  0  0  0  0  0  0  0
    1.0757   -1.0066    0.9826 H   0  0  0  0  0  0  0  0  0  0  0  0
    2.4732    1.0759   -0.7608 H   0  0  0  0  0  0  0  0  0  0  0  0
    2.4890    1.0355    0.9996 H   0  0  0  0  0  0  0  0  0  0  0  0
   -0.0881    1.2229    0.9142 H   0  0  0  0  0  0  0  0  0  0  0  0
   -0.0748    1.1623   -0.8500 H   0  0  0  0  0  0  0  0  0  0  0  0
    3.6208   -1.1640   -0.8070 H   0  0  0  0  0  0  0  0  0  0  0  0
    3.6871   -1.1492    0.9569 H   0  0  0  0  0  0  0  0  0  0  0  0
   -1.4411   -0.8809    0.9882 H   0  0  0  0  0  0  0  0  0  0  0  0
   -1.4102   -0.9691   -0.7749 H   0  0  0  0  0  0  0  0  0  0  0  0
    5.0389    0.9576    0.8934 H   0  0  0  0  0  0  0  0  0  0  0  0
    4.9463    0.9710   -0.8690 H   0  0  0  0  0  0  0  0  0  0  0  0
   -2.5883    1.2629   -0.8903 H   0  0  0  0  0  0  0  0  0  0  0  0
   -2.6403    1.3225    0.8581 H   0  0  0  0  0  0  0  0  0  0  0  0
    6.1270   -1.2483   -0.9407 H   0  0  0  0  0  0  0  0  0  0  0  0
    6.2433   -1.2344    0.8203 H   0  0  0  0  0  0  0  0  0  0  0  0
   -3.9566   -0.8191   -0.8869 H   0  0  0  0  0  0  0  0  0  0  0  0
   -3.9995   -0.7800    0.8958 H   0  0  0  0  0  0  0  0  0  0  0  0
    7.6024    0.8667    0.7149 H   0  0  0  0  0  0  0  0  0  0  0  0
    7.4846    0.8489   -1.0559 H   0  0  0  0  0  0  0  0  0  0  0  0
    8.3493   -0.4466   -0.2111 H   0  0  0  0  0  0  0  0  0  0  0  0
   -7.0369    0.9224   -0.1055 H   0  0  0  0  0  0  0  0  0  0  0  0
  1 11  1  0  0  0  0
  1 13  1  0  0  0  0
  2 13  2  0  0  0  0
  3  4  1  0  0  0  0
  3  5  1  0  0  0  0
  3 14  1  0  0  0  0
  3 15  1  0  0  0  0
  4  6  1  0  0  0  0
  4 16  1  0  0  0  0
  4 17  1  0  0  0  0
  5  7  1  0  0  0  0
  5 18  1  0  0  0  0
  5 19  1  0  0  0  0
  6  8  1  0  0  0  0
  6 20  1  0  0  0  0
  6 21  1  0  0  0  0
  7  9  1  0  0  0  0
  7 22  1  0  0  0  0
  7 23  1  0  0  0  0
  8 10  1  0  0  0  0
  8 24  1  0  0  0  0
  8 25  1  0  0  0  0
  9 11  1  0  0  0  0
  9 26  1  0  0  0  0
  9 27  1  0  0  0  0
 10 12  1  0  0  0  0
 10 28  1  0  0  0  0
 10 29  1  0  0  0  0
 11 30  1  0  0  0  0
 11 31  1  0  0  0  0
 12 32  1  0  0  0  0
 12 33  1  0  0  0  0
 12 34  1  0  0  0  0
 13 35  1  0  0  0  0
M  END
> <PUBCHEM_COMPOUND_CID>
79541

> <PUBCHEM_CONFORMER_RMSD>
1

> <PUBCHEM_CONFORMER_DIVERSEORDER>
1
646
93
6
467
98
512
3
42
764
507
443
476
429
52
261
557
41
17
226
565
7
381
297
524
4
809
294
37
144
413
722
145
22
462
201
571
78
149
265
58
276
35
221
318
53
825
575
849
234
95
500
16
174
59
140
683
387
27
546
334
652
587
100
31
175
88
706
108
40
786
231
667
199
465
415
333
398
224
118
721
69
700
66
741
762
179
225
15
670
12
800
441
486
107
321
718
805
83
51
703
172
168
291
76
274
89
365
235
469
116
455
280
106
73
562
219
430
535
643
346
862
775
851
439
299
109
807
313
492

> <PUBCHEM_MMFF94_PARTIAL_CHARGES>
5
1 -0.43
11 0.28
13 0.66
2 -0.57
35 0.06

> <PUBCHEM_EFFECTIVE_ROTOR_COUNT>
10

> <PUBCHEM_PHARMACOPHORE_FEATURES>
2
1 12 hydrophobe
1 2 acceptor

> <PUBCHEM_HEAVY_ATOM_COUNT>
13

> <PUBCHEM_ATOM_DEF_STEREO_COUNT>
0

> <PUBCHEM_ATOM_UDEF_STEREO_COUNT>
0

> <PUBCHEM_BOND_DEF_STEREO_COUNT>
0

> <PUBCHEM_BOND_UDEF_STEREO_COUNT>
0

> <PUBCHEM_ISOTOPIC_ATOM_COUNT>
0

> <PUBCHEM_COMPONENT_COUNT>
1

> <PUBCHEM_CACTVS_TAUTO_COUNT>
1

> <PUBCHEM_CONFORMER_ID>
000136B500000001

> <PUBCHEM_MMFF94_ENERGY>
1.339

> <PUBCHEM_FEATURE_SELFOVERLAP>
10.148

> <PUBCHEM_SHAPE_FINGERPRINT>
10968037 39 18333450941571860383
11315181 36 18342741827996507817
12091667 2 17749391456125007921
13533116 47 16660914496875226056
14123256 10 18113056034432935362
1420 363 17561085808310798543
14251718 22 18409166601699094801
14251764 18 18334574642371194442
14251764 46 18410573985156732407
14729087 3 10809336754892674503
17834076 25 18113618984549821970
20645477 70 18264487291867088442
20767249 213 17748828522939895220
22224240 67 16443345399434272602
22896161 15 18410011056709861030
23035841 295 18342455941339395035
23402539 116 18272365378162114117
23521765 1 18341894090839338816
33684 2 18410572877055170026
42788 4 18411136930846971353
57583515 80 9151173160205262805
8209 1 18407760335565911380

> <PUBCHEM_SHAPE_MULTIPOLES>
255.8
20.82
0.85
0.61
2.54
0.04
0
1.72
1.24
-0.32
0
0.1
0
-0.02

> <PUBCHEM_SHAPE_SELFOVERLAP>
459.045

> <PUBCHEM_SHAPE_VOLUME>
164.7

> <PUBCHEM_COORDINATE_TYPE>
2
5
10

$$$$
