79546
  -OEChem-11232108563D

 36 36  0     0  0  0  0  0  0999 V2000
    1.5029    0.0148    0.0196 O   0  0  0  0  0  0  0  0  0  0  0  0
    3.0266   -1.7171   -0.0262 O   0  0  0  0  0  0  0  0  0  0  0  0
   -0.8930   -0.1710    0.0296 C   0  0  0  0  0  0  0  0  0  0  0  0
   -2.0878   -1.1231    0.0316 C   0  0  0  0  0  0  0  0  0  0  0  0
    5.2064    0.0731    0.0204 C   0  0  0  0  0  0  0  0  0  0  0  0
    0.4269   -0.9289    0.0057 C   0  0  0  0  0  0  0  0  0  0  0  0
    3.7716    0.5978    0.0169 C   0  0  0  0  0  0  0  0  0  0  0  0
    6.2176    1.2185   -0.0032 C   0  0  0  0  0  0  0  0  0  0  0  0
   -3.3963   -0.3757    0.0101 C   0  0  0  0  0  0  0  0  0  0  0  0
    2.7583   -0.5239    0.0008 C   0  0  0  0  0  0  0  0  0  0  0  0
    7.6462    0.6998   -0.0385 C   0  0  0  0  0  0  0  0  0  0  0  0
   -3.9987   -0.0210    1.2083 C   0  0  0  0  0  0  0  0  0  0  0  0
   -3.9776   -0.0536   -1.2075 C   0  0  0  0  0  0  0  0  0  0  0  0
   -5.2097    0.6709    1.1885 C   0  0  0  0  0  0  0  0  0  0  0  0
   -5.1886    0.6385   -1.2272 C   0  0  0  0  0  0  0  0  0  0  0  0
   -5.8046    1.0007   -0.0291 C   0  0  0  0  0  0  0  0  0  0  0  0
   -0.9210    0.4836    0.9104 H   0  0  0  0  0  0  0  0  0  0  0  0
   -0.9371    0.5028   -0.8361 H   0  0  0  0  0  0  0  0  0  0  0  0
   -2.0366   -1.7949   -0.8351 H   0  0  0  0  0  0  0  0  0  0  0  0
   -2.0498   -1.7740    0.9147 H   0  0  0  0  0  0  0  0  0  0  0  0
    5.3636   -0.5746   -0.8513 H   0  0  0  0  0  0  0  0  0  0  0  0
    5.3709   -0.5496    0.9088 H   0  0  0  0  0  0  0  0  0  0  0  0
    0.5047   -1.5775    0.8861 H   0  0  0  0  0  0  0  0  0  0  0  0
    0.4942   -1.5404   -0.9017 H   0  0  0  0  0  0  0  0  0  0  0  0
    3.6059    1.2175   -0.8715 H   0  0  0  0  0  0  0  0  0  0  0  0
    3.5987    1.2040    0.9132 H   0  0  0  0  0  0  0  0  0  0  0  0
    6.0446    1.8506   -0.8819 H   0  0  0  0  0  0  0  0  0  0  0  0
    6.0845    1.8506    0.8825 H   0  0  0  0  0  0  0  0  0  0  0  0
    7.8629    0.0873    0.8425 H   0  0  0  0  0  0  0  0  0  0  0  0
    7.8209    0.0915   -0.9317 H   0  0  0  0  0  0  0  0  0  0  0  0
    8.3526    1.5356   -0.0534 H   0  0  0  0  0  0  0  0  0  0  0  0
   -3.5423   -0.2715    2.1617 H   0  0  0  0  0  0  0  0  0  0  0  0
   -3.5049   -0.3294   -2.1459 H   0  0  0  0  0  0  0  0  0  0  0  0
   -5.6890    0.9535    2.1212 H   0  0  0  0  0  0  0  0  0  0  0  0
   -5.6517    0.8960   -2.1752 H   0  0  0  0  0  0  0  0  0  0  0  0
   -6.7473    1.5398   -0.0445 H   0  0  0  0  0  0  0  0  0  0  0  0
  1  6  1  0  0  0  0
  1 10  1  0  0  0  0
  2 10  2  0  0  0  0
  3  4  1  0  0  0  0
  3  6  1  0  0  0  0
  3 17  1  0  0  0  0
  3 18  1  0  0  0  0
  4  9  1  0  0  0  0
  4 19  1  0  0  0  0
  4 20  1  0  0  0  0
  5  7  1  0  0  0  0
  5  8  1  0  0  0  0
  5 21  1  0  0  0  0
  5 22  1  0  0  0  0
  6 23  1  0  0  0  0
  6 24  1  0  0  0  0
  7 10  1  0  0  0  0
  7 25  1  0  0  0  0
  7 26  1  0  0  0  0
  8 11  1  0  0  0  0
  8 27  1  0  0  0  0
  8 28  1  0  0  0  0
  9 12  2  0  0  0  0
  9 13  1  0  0  0  0
 11 29  1  0  0  0  0
 11 30  1  0  0  0  0
 11 31  1  0  0  0  0
 12 14  1  0  0  0  0
 12 32  1  0  0  0  0
 13 15  2  0  0  0  0
 13 33  1  0  0  0  0
 14 16  2  0  0  0  0
 14 34  1  0  0  0  0
 15 16  1  0  0  0  0
 15 35  1  0  0  0  0
 16 36  1  0  0  0  0
M  END
> <PUBCHEM_COMPOUND_CID>
79546

> <PUBCHEM_CONFORMER_RMSD>
0.8

> <PUBCHEM_CONFORMER_DIVERSEORDER>
1
245
16
323
54
339
148
107
168
63
217
215
356
131
239
345
61
180
24
380
399
126
326
407
100
130
5
269
354
92
219
197
128
318
314
185
282
317
220
236
150
98
349
8
336
241
56
283
157
3
178
169
163
389
147
179
34
114
162
122
28
292
104
115
135
360
159
265
240
232
352
133
105
313
158
305
385
378
280
316
251
205
83
82
281
78
258
297
334
6
145
44
182
392
40
330
279
262
229
132
329
2
351
328
94
38
216
390
224
243
387
184
400
45
350
289
116
398
372
57
286
340
361
249
37
202
302
138
93
355
36
391
30
381
174
33
161
87
246
312
322
7
198
403
397
9
49
347
41
235
186
324
272
72
248
65
343
193
47
48
364
271
118
264
85
12
120
50
139
91
195
141
175
311
125
113
209
31
15
338
142
383
88
21
260
365
368
190
295
346
62
46
146
124
183
192
188
363
199
382
187
284
263
222
211
90
196
154
60
242
155
359
123
375
377
32
315
109
97
404
200
254
319
53
376
304
137
166
181
14
267
42
379
194
64
388
227
73
226
266
247
369
76
23
371
362
35
210
152
4
71
276
306
288
19
233
134
237
51
10
95
308
394
207
234
129
320
59
384
201
252
69
250
307
285
52
165
112
310
74
206
18
259
13
244
214
342
278
299
357
309
29
156
25
66
393
119
177
99
221
358
386
20
86
253
327
27
296
117
218
325
337
335
96
333
164
370
290
367
172
374
273
257
39
395
26
160
373
136
80
151
275
213
11
294
256
127
79
231
106
274
84
212
89
55
225
405
149
153
396
301
223
406
341
43
287
58
298
238
291
70
353
110
77
401
268
140
344
348
270
293
204
81
300
143
331
321
68
102
75
173
167
255
230
17
101
208
261
171
228
67
170
103
121
303
189
22
366
332
402
108
111
191
144
277
203
176

> <PUBCHEM_MMFF94_PARTIAL_CHARGES>
17
1 -0.43
10 0.66
12 -0.15
13 -0.15
14 -0.15
15 -0.15
16 -0.15
2 -0.57
32 0.15
33 0.15
34 0.15
35 0.15
36 0.15
4 0.14
6 0.28
7 0.06
9 -0.14

> <PUBCHEM_EFFECTIVE_ROTOR_COUNT>
8

> <PUBCHEM_PHARMACOPHORE_FEATURES>
3
1 11 hydrophobe
1 2 acceptor
6 9 12 13 14 15 16 rings

> <PUBCHEM_HEAVY_ATOM_COUNT>
16

> <PUBCHEM_ATOM_DEF_STEREO_COUNT>
0

> <PUBCHEM_ATOM_UDEF_STEREO_COUNT>
0

> <PUBCHEM_BOND_DEF_STEREO_COUNT>
0

> <PUBCHEM_BOND_UDEF_STEREO_COUNT>
0

> <PUBCHEM_ISOTOPIC_ATOM_COUNT>
0

> <PUBCHEM_COMPONENT_COUNT>
1

> <PUBCHEM_CACTVS_TAUTO_COUNT>
1

> <PUBCHEM_CONFORMER_ID>
000136BA00000001

> <PUBCHEM_MMFF94_ENERGY>
20.2781

> <PUBCHEM_FEATURE_SELFOVERLAP>
15.223

> <PUBCHEM_SHAPE_FINGERPRINT>
106641 1 18260275166237163673
11089746 13 17704069616571183608
11315181 36 12823296818811442403
12091667 2 17458061590326418227
12596602 18 15213017159208734284
12714333 28 18130787871739816440
13288520 33 9223231845460386811
13403585 85 16805318890367830109
13533116 47 17917429771091049970
13631057 29 18267579294795535039
13668630 136 10375871883221898532
13862211 1 9367354721659688204
13964095 4 13901914388818015947
14123256 34 9295291655580100632
1420 363 10447928382116603324
14251718 22 14333410060321429044
14251752 14 15267345106947654004
14251764 18 18334855034763081819
14350574 20 10664102255331532338
14528608 73 17203603809175546552
14729087 3 18413385454233827024
14849402 71 14129640903668016118
15048467 5 18412545414106367640
15183329 4 16630533912499458854
15242439 84 13686295768658933651
15348495 7 16733273455593436808
15501527 16 18259984885517368046
15716309 27 11746934291534718304
17093844 174 11963381964751773167
17780758 139 14056720149904630965
17834072 8 13542464258656380876
17834076 25 18343865524015252658
17870717 6 14261350259050151773
18643901 69 14117506676480690469
19489759 90 15339121238677274195
200 152 9295288335559967839
20281389 69 18259701194443196628
20621476 8 18412547592282378452
20645477 56 18040992951590463535
20645477 70 18340486647326804830
21150785 3 17203324533169396109
220451 1 15985388867552887247
23198884 109 17275106132598268381
23402539 116 16845573114730063000
23402655 69 18130785672521746046
23466295 7 11310611815937459389
23559900 14 13038890149459819571
2767999 5 18342735230546932784
2916195 48 17967249823095748729
29717793 49 17346323670426399878
300161 21 18412542111076251790
328310 630 18200883984025952512
351380 3 7997971262710974448
3545911 37 18409168822297524058
5104073 3 16588580882179084521
542803 24 17704071789349744995
57583515 80 17561084713468625922
59682541 52 17489041379381543638

> <PUBCHEM_SHAPE_MULTIPOLES>
317.53
19.44
1.18
0.98
22.48
0.17
0.01
-8.5
0.16
0.47
0
-1.73
-0.12
0.01

> <PUBCHEM_SHAPE_SELFOVERLAP>
628.141

> <PUBCHEM_SHAPE_VOLUME>
189.1

> <PUBCHEM_COORDINATE_TYPE>
2
5
10

$$$$
