79547
  -OEChem-11232109243D

 42 42  0     0  0  0  0  0  0999 V2000
    1.8313   -0.2679   -0.0031 O   0  0  0  0  0  0  0  0  0  0  0  0
    3.0037   -2.2489   -0.0173 O   0  0  0  0  0  0  0  0  0  0  0  0
   -4.4294   -0.4133    0.0580 C   0  0  0  0  0  0  0  0  0  0  0  0
   -3.0747    0.2981    0.0655 C   0  0  0  0  0  0  0  0  0  0  0  0
   -5.6227    0.5472    0.0610 C   0  0  0  0  0  0  0  0  0  0  0  0
   -1.9209   -0.7073    0.0297 C   0  0  0  0  0  0  0  0  0  0  0  0
   -7.0072   -0.1072    0.0315 C   0  0  0  0  0  0  0  0  0  0  0  0
   -0.5649    0.0044    0.0076 C   0  0  0  0  0  0  0  0  0  0  0  0
   -8.1559    0.9002   -0.0208 C   0  0  0  0  0  0  0  0  0  0  0  0
    0.6007   -0.9770   -0.0017 C   0  0  0  0  0  0  0  0  0  0  0  0
   -9.5016    0.2011   -0.1404 C   0  0  0  0  0  0  0  0  0  0  0  0
    2.9614   -1.0285   -0.0112 C   0  0  0  0  0  0  0  0  0  0  0  0
    4.1740   -0.1716   -0.0103 C   0  0  0  0  0  0  0  0  0  0  0  0
    5.4408   -0.7558   -0.0166 C   0  0  0  0  0  0  0  0  0  0  0  0
    4.0466    1.2175   -0.0036 C   0  0  0  0  0  0  0  0  0  0  0  0
    6.5800    0.0490   -0.0160 C   0  0  0  0  0  0  0  0  0  0  0  0
    5.1860    2.0222   -0.0031 C   0  0  0  0  0  0  0  0  0  0  0  0
    6.4527    1.4379   -0.0093 C   0  0  0  0  0  0  0  0  0  0  0  0
   -4.4997   -1.0714    0.9327 H   0  0  0  0  0  0  0  0  0  0  0  0
   -4.4960   -1.0568   -0.8280 H   0  0  0  0  0  0  0  0  0  0  0  0
   -2.9936    0.9236    0.9625 H   0  0  0  0  0  0  0  0  0  0  0  0
   -3.0080    0.9655   -0.8022 H   0  0  0  0  0  0  0  0  0  0  0  0
   -5.5568    1.1875    0.9499 H   0  0  0  0  0  0  0  0  0  0  0  0
   -5.5335    1.2140   -0.8062 H   0  0  0  0  0  0  0  0  0  0  0  0
   -2.0127   -1.3445   -0.8582 H   0  0  0  0  0  0  0  0  0  0  0  0
   -1.9777   -1.3628    0.9071 H   0  0  0  0  0  0  0  0  0  0  0  0
   -7.1213   -0.7457    0.9162 H   0  0  0  0  0  0  0  0  0  0  0  0
   -7.0650   -0.7668   -0.8434 H   0  0  0  0  0  0  0  0  0  0  0  0
   -0.4945    0.6574   -0.8712 H   0  0  0  0  0  0  0  0  0  0  0  0
   -0.4715    0.6650    0.8787 H   0  0  0  0  0  0  0  0  0  0  0  0
   -8.1459    1.5212    0.8823 H   0  0  0  0  0  0  0  0  0  0  0  0
   -8.0236    1.5707   -0.8779 H   0  0  0  0  0  0  0  0  0  0  0  0
    0.5449   -1.6092   -0.8960 H   0  0  0  0  0  0  0  0  0  0  0  0
    0.5530   -1.6167    0.8877 H   0  0  0  0  0  0  0  0  0  0  0  0
   -9.5527   -0.3990   -1.0544 H   0  0  0  0  0  0  0  0  0  0  0  0
   -9.6777   -0.4589    0.7150 H   0  0  0  0  0  0  0  0  0  0  0  0
  -10.3098    0.9384   -0.1728 H   0  0  0  0  0  0  0  0  0  0  0  0
    5.5616   -1.8358   -0.0220 H   0  0  0  0  0  0  0  0  0  0  0  0
    3.0806    1.7143    0.0013 H   0  0  0  0  0  0  0  0  0  0  0  0
    7.5663   -0.4056   -0.0209 H   0  0  0  0  0  0  0  0  0  0  0  0
    5.0876    3.1039    0.0021 H   0  0  0  0  0  0  0  0  0  0  0  0
    7.3398    2.0646   -0.0089 H   0  0  0  0  0  0  0  0  0  0  0  0
  1 10  1  0  0  0  0
  1 12  1  0  0  0  0
  2 12  2  0  0  0  0
  3  4  1  0  0  0  0
  3  5  1  0  0  0  0
  3 19  1  0  0  0  0
  3 20  1  0  0  0  0
  4  6  1  0  0  0  0
  4 21  1  0  0  0  0
  4 22  1  0  0  0  0
  5  7  1  0  0  0  0
  5 23  1  0  0  0  0
  5 24  1  0  0  0  0
  6  8  1  0  0  0  0
  6 25  1  0  0  0  0
  6 26  1  0  0  0  0
  7  9  1  0  0  0  0
  7 27  1  0  0  0  0
  7 28  1  0  0  0  0
  8 10  1  0  0  0  0
  8 29  1  0  0  0  0
  8 30  1  0  0  0  0
  9 11  1  0  0  0  0
  9 31  1  0  0  0  0
  9 32  1  0  0  0  0
 10 33  1  0  0  0  0
 10 34  1  0  0  0  0
 11 35  1  0  0  0  0
 11 36  1  0  0  0  0
 11 37  1  0  0  0  0
 12 13  1  0  0  0  0
 13 14  2  0  0  0  0
 13 15  1  0  0  0  0
 14 16  1  0  0  0  0
 14 38  1  0  0  0  0
 15 17  2  0  0  0  0
 15 39  1  0  0  0  0
 16 18  2  0  0  0  0
 16 40  1  0  0  0  0
 17 18  1  0  0  0  0
 17 41  1  0  0  0  0
 18 42  1  0  0  0  0
M  END
> <PUBCHEM_COMPOUND_CID>
79547

> <PUBCHEM_CONFORMER_RMSD>
1

> <PUBCHEM_CONFORMER_DIVERSEORDER>
2
170
93
195
182
72
168
20
174
91
163
102
15
113
188
39
184
159
119
23
62
169
96
10
107
5
148
186
18
86
75
38
48
171
115
176
143
97
150
145
167
125
80
98
189
175
71
88
157
64
83
194
104
92
50
30
9
6
162
140
173
60
181
172
3
151
100
27
44
24
161
108
106
128
11
1
187
147
99
7
123
166
65
33
139
142
28
134
58
153
121
111
94
178
124
31
12
126
43
95
155
21
193
114
146
22
14
129
68
112
46
17
116
70
103
45
154
37
4
177
85
118
183
84
29
36
122
158
26
51
25
61
19
34
152
138
144
41
56
136
164
105
131
149
117
89
191
133
13
156
66
67
137
165
76
35
8
190
63
69
81
130
74
179
109
160
47
54
185
49
110
57
59
53
55
52
16
87
32
82
127
78
141
42
132
40
192
101
180
77
135
196
73
79
90
120

> <PUBCHEM_MMFF94_PARTIAL_CHARGES>
15
1 -0.43
10 0.28
12 0.63
13 0.09
14 -0.15
15 -0.15
16 -0.15
17 -0.15
18 -0.15
2 -0.57
38 0.15
39 0.15
40 0.15
41 0.15
42 0.15

> <PUBCHEM_EFFECTIVE_ROTOR_COUNT>
10

> <PUBCHEM_PHARMACOPHORE_FEATURES>
3
1 11 hydrophobe
1 2 acceptor
6 13 14 15 16 17 18 rings

> <PUBCHEM_HEAVY_ATOM_COUNT>
18

> <PUBCHEM_ATOM_DEF_STEREO_COUNT>
0

> <PUBCHEM_ATOM_UDEF_STEREO_COUNT>
0

> <PUBCHEM_BOND_DEF_STEREO_COUNT>
0

> <PUBCHEM_BOND_UDEF_STEREO_COUNT>
0

> <PUBCHEM_ISOTOPIC_ATOM_COUNT>
0

> <PUBCHEM_COMPONENT_COUNT>
1

> <PUBCHEM_CACTVS_TAUTO_COUNT>
1

> <PUBCHEM_CONFORMER_ID>
000136BB00000002

> <PUBCHEM_MMFF94_ENERGY>
23.9985

> <PUBCHEM_FEATURE_SELFOVERLAP>
15.223

> <PUBCHEM_SHAPE_FINGERPRINT>
10299344 5 17989204846400783311
10411042 1 17978510829096518390
11315181 36 18272653442800155881
11638347 137 16588019091486648448
125118 31 18040719151905401685
13073987 5 16588293931245275357
13167372 99 18341615871864960000
14123256 10 17918274251369979545
14170010 4 18187085065841881677
14251764 18 17989489615659757553
14251764 46 18411136935115434970
14429380 56 18337381725653631925
14729087 3 17458339716288974045
14933364 13 18410012131016180957
15048467 5 18412825793845214833
155225 1 18411701024164280152
16120349 18 18410007767414161725
195137 175 17775010060189110657
20157964 124 18411702062781182446
20281389 69 18186517687850842605
20397935 70 13334725813703138816
20735858 18 14562528483798179497
21130983 4 18412546509592001513
21150785 3 17704353273686484557
21315763 28 18411699851004530057
220451 1 17060334111783352423
22224240 67 17748826324249352139
23035841 295 10809346642408179361
33532 11 9727637198264701789
335352 9 18412550899745137974
33684 2 18343301453012206459
3545911 37 18335421270403245390
4073 2 18113904908881244883
4325135 7 18272369772045656517
4340502 62 17240199932762253178
444735 82 18186524323454665333
59682541 35 17894634777501354009
59682541 52 17632030671703086390
6025842 7 18272091557086851926
6438161 24 12031794630499081116
67123 10 18411418420021984199
8209 1 18410856559645070823

> <PUBCHEM_SHAPE_MULTIPOLES>
358.69
27.21
1.51
0.61
51.15
0.06
0
8.88
0.62
-2.69
0.01
0.04
0.01
0.03

> <PUBCHEM_SHAPE_SELFOVERLAP>
703.287

> <PUBCHEM_SHAPE_VOLUME>
215.2

> <PUBCHEM_COORDINATE_TYPE>
2
5
10

$$$$
