79552
  -OEChem-11232109133D

 39 39  0     0  0  0  0  0  0999 V2000
   -1.1387   -1.7450    0.2846 O   0  0  0  0  0  0  0  0  0  0  0  0
   -2.9317   -2.0022   -1.1436 O   0  0  0  0  0  0  0  0  0  0  0  0
   -1.5450    1.3712    0.3115 C   0  0  0  0  0  0  0  0  0  0  0  0
   -2.9967    0.8927    0.4132 C   0  0  0  0  0  0  0  0  0  0  0  0
   -1.4732    2.8358   -0.1250 C   0  0  0  0  0  0  0  0  0  0  0  0
   -3.0997   -0.5770    0.8207 C   0  0  0  0  0  0  0  0  0  0  0  0
   -0.0249    3.3070   -0.2545 C   0  0  0  0  0  0  0  0  0  0  0  0
    0.0505    4.7713   -0.6564 C   0  0  0  0  0  0  0  0  0  0  0  0
   -2.4134   -1.5137   -0.1488 C   0  0  0  0  0  0  0  0  0  0  0  0
    1.0248   -2.8065    0.0801 C   0  0  0  0  0  0  0  0  0  0  0  0
   -0.3677   -2.6436   -0.5195 C   0  0  0  0  0  0  0  0  0  0  0  0
    1.7882   -1.5049    0.1201 C   0  0  0  0  0  0  0  0  0  0  0  0
    2.5781   -1.1471   -0.9612 C   0  0  0  0  0  0  0  0  0  0  0  0
    1.6854   -0.6908    1.2370 C   0  0  0  0  0  0  0  0  0  0  0  0
    3.2835    0.0556   -0.9246 C   0  0  0  0  0  0  0  0  0  0  0  0
    2.3908    0.5121    1.2735 C   0  0  0  0  0  0  0  0  0  0  0  0
    3.1898    0.8852    0.1927 C   0  0  0  0  0  0  0  0  0  0  0  0
   -0.9961    0.7677   -0.4198 H   0  0  0  0  0  0  0  0  0  0  0  0
   -1.0477    1.2472    1.2807 H   0  0  0  0  0  0  0  0  0  0  0  0
   -3.4906    1.0314   -0.5565 H   0  0  0  0  0  0  0  0  0  0  0  0
   -3.5390    1.5050    1.1431 H   0  0  0  0  0  0  0  0  0  0  0  0
   -1.9858    2.9601   -1.0866 H   0  0  0  0  0  0  0  0  0  0  0  0
   -2.0005    3.4613    0.6055 H   0  0  0  0  0  0  0  0  0  0  0  0
   -2.6873   -0.7303    1.8254 H   0  0  0  0  0  0  0  0  0  0  0  0
   -4.1526   -0.8766    0.8796 H   0  0  0  0  0  0  0  0  0  0  0  0
    0.4992    2.7000   -1.0018 H   0  0  0  0  0  0  0  0  0  0  0  0
    0.4971    3.1710    0.6996 H   0  0  0  0  0  0  0  0  0  0  0  0
   -0.4367    4.9385   -1.6223 H   0  0  0  0  0  0  0  0  0  0  0  0
    1.0950    5.0867   -0.7435 H   0  0  0  0  0  0  0  0  0  0  0  0
   -0.4358    5.4085    0.0892 H   0  0  0  0  0  0  0  0  0  0  0  0
    1.5909   -3.5514   -0.4924 H   0  0  0  0  0  0  0  0  0  0  0  0
    0.9430   -3.2007    1.1014 H   0  0  0  0  0  0  0  0  0  0  0  0
   -0.3010   -2.2485   -1.5404 H   0  0  0  0  0  0  0  0  0  0  0  0
   -0.8665   -3.6194   -0.5459 H   0  0  0  0  0  0  0  0  0  0  0  0
    2.6553   -1.7855   -1.8366 H   0  0  0  0  0  0  0  0  0  0  0  0
    1.0652   -0.9706    2.0837 H   0  0  0  0  0  0  0  0  0  0  0  0
    3.9045    0.3469   -1.7665 H   0  0  0  0  0  0  0  0  0  0  0  0
    2.3161    1.1594    2.1424 H   0  0  0  0  0  0  0  0  0  0  0  0
    3.7374    1.8227    0.2206 H   0  0  0  0  0  0  0  0  0  0  0  0
  1  9  1  0  0  0  0
  1 11  1  0  0  0  0
  2  9  2  0  0  0  0
  3  4  1  0  0  0  0
  3  5  1  0  0  0  0
  3 18  1  0  0  0  0
  3 19  1  0  0  0  0
  4  6  1  0  0  0  0
  4 20  1  0  0  0  0
  4 21  1  0  0  0  0
  5  7  1  0  0  0  0
  5 22  1  0  0  0  0
  5 23  1  0  0  0  0
  6  9  1  0  0  0  0
  6 24  1  0  0  0  0
  6 25  1  0  0  0  0
  7  8  1  0  0  0  0
  7 26  1  0  0  0  0
  7 27  1  0  0  0  0
  8 28  1  0  0  0  0
  8 29  1  0  0  0  0
  8 30  1  0  0  0  0
 10 11  1  0  0  0  0
 10 12  1  0  0  0  0
 10 31  1  0  0  0  0
 10 32  1  0  0  0  0
 11 33  1  0  0  0  0
 11 34  1  0  0  0  0
 12 13  2  0  0  0  0
 12 14  1  0  0  0  0
 13 15  1  0  0  0  0
 13 35  1  0  0  0  0
 14 16  2  0  0  0  0
 14 36  1  0  0  0  0
 15 17  2  0  0  0  0
 15 37  1  0  0  0  0
 16 17  1  0  0  0  0
 16 38  1  0  0  0  0
 17 39  1  0  0  0  0
M  END
> <PUBCHEM_COMPOUND_CID>
79552

> <PUBCHEM_CONFORMER_RMSD>
1

> <PUBCHEM_CONFORMER_DIVERSEORDER>
1
83
70
65
92
155
72
28
56
96
5
98
85
81
145
4
16
144
154
34
36
153
129
114
157
141
33
10
118
55
13
125
19
35
135
61
160
6
156
99
131
107
124
111
138
158
29
116
73
100
66
20
110
57
74
140
95
18
71
151
14
78
17
59
105
38
119
143
115
86
40
108
52
15
8
37
136
41
49
63
77
51
58
31
90
23
26
53
148
147
64
146
97
82
43
80
91
22
113
123
106
75
46
2
150
101
67
133
3
87
9
139
126
104
62
121
47
50
127
152
109
88
30
137
60
130
12
39
112
128
45
32
132
102
103
122
11
21
54
44
93
149
134
7
76
84
120
27
48
159
89
25
42
24
69
79
161
142
68
94
117

> <PUBCHEM_MMFF94_PARTIAL_CHARGES>
17
1 -0.43
10 0.14
11 0.28
12 -0.14
13 -0.15
14 -0.15
15 -0.15
16 -0.15
17 -0.15
2 -0.57
35 0.15
36 0.15
37 0.15
38 0.15
39 0.15
6 0.06
9 0.66

> <PUBCHEM_EFFECTIVE_ROTOR_COUNT>
9

> <PUBCHEM_PHARMACOPHORE_FEATURES>
4
1 2 acceptor
1 8 hydrophobe
5 3 4 5 6 7 hydrophobe
6 12 13 14 15 16 17 rings

> <PUBCHEM_HEAVY_ATOM_COUNT>
17

> <PUBCHEM_ATOM_DEF_STEREO_COUNT>
0

> <PUBCHEM_ATOM_UDEF_STEREO_COUNT>
0

> <PUBCHEM_BOND_DEF_STEREO_COUNT>
0

> <PUBCHEM_BOND_UDEF_STEREO_COUNT>
0

> <PUBCHEM_ISOTOPIC_ATOM_COUNT>
0

> <PUBCHEM_COMPONENT_COUNT>
1

> <PUBCHEM_CACTVS_TAUTO_COUNT>
1

> <PUBCHEM_CONFORMER_ID>
000136C000000001

> <PUBCHEM_MMFF94_ENERGY>
19.2909

> <PUBCHEM_FEATURE_SELFOVERLAP>
20.297

> <PUBCHEM_SHAPE_FINGERPRINT>
10498660 4 18410572885861467119
12553582 1 18408605876797618009
128993 33 18126854793544765984
14251751 93 18119259359236933350
14386348 128 18199195000810140699
17492 54 17901106635532840700
23402539 116 18342169020934827846
238 59 17473524868678293261
3524813 1 18131629010619138370
3797600 57 16809868768051653571
44154327 71 18337964389395801241
5282940 2 17108741489395850600
54672768 99 16603794592586618124
5939293 188 18193833979681723652

> <PUBCHEM_SHAPE_MULTIPOLES>
338.11
5.32
4.93
1.07
0.26
3.01
0.09
0.95
-0.09
-3.41
-1.36
0.39
0
0.39

> <PUBCHEM_SHAPE_SELFOVERLAP>
667.515

> <PUBCHEM_SHAPE_VOLUME>
201.4

> <PUBCHEM_COORDINATE_TYPE>
2
5
10

$$$$
