79582
  -OEChem-11232109213D

 38 37  0     0  0  0  0  0  0999 V2000
   -2.5352   -0.2036   -0.1652 O   0  0  0  0  0  0  0  0  0  0  0  0
   -1.4153    1.7440    0.3574 O   0  0  0  0  0  0  0  0  0  0  0  0
    2.3479   -0.4091   -0.1709 C   0  0  0  0  0  0  0  0  0  0  0  0
    3.6389    0.3728    0.0796 C   0  0  0  0  0  0  0  0  0  0  0  0
    1.1134    0.4584    0.0945 C   0  0  0  0  0  0  0  0  0  0  0  0
    4.8726   -0.5014   -0.1527 C   0  0  0  0  0  0  0  0  0  0  0  0
   -0.1935   -0.3047   -0.1206 C   0  0  0  0  0  0  0  0  0  0  0  0
    6.1616    0.2696    0.1297 C   0  0  0  0  0  0  0  0  0  0  0  0
   -4.9391   -0.4814   -0.3405 C   0  0  0  0  0  0  0  0  0  0  0  0
   -3.7856    0.4841   -0.0545 C   0  0  0  0  0  0  0  0  0  0  0  0
   -1.4237    0.5551    0.0687 C   0  0  0  0  0  0  0  0  0  0  0  0
    7.3890   -0.6057   -0.0675 C   0  0  0  0  0  0  0  0  0  0  0  0
   -6.2733    0.2610   -0.3180 C   0  0  0  0  0  0  0  0  0  0  0  0
   -4.9578   -1.6391    0.6599 C   0  0  0  0  0  0  0  0  0  0  0  0
    2.3195   -1.2916    0.4796 H   0  0  0  0  0  0  0  0  0  0  0  0
    2.3288   -0.7688   -1.2067 H   0  0  0  0  0  0  0  0  0  0  0  0
    3.6757    1.2458   -0.5832 H   0  0  0  0  0  0  0  0  0  0  0  0
    3.6452    0.7485    1.1101 H   0  0  0  0  0  0  0  0  0  0  0  0
    1.1374    1.3357   -0.5642 H   0  0  0  0  0  0  0  0  0  0  0  0
    1.1442    0.8404    1.1227 H   0  0  0  0  0  0  0  0  0  0  0  0
    4.8783   -0.8630   -1.1882 H   0  0  0  0  0  0  0  0  0  0  0  0
    4.8240   -1.3837    0.4972 H   0  0  0  0  0  0  0  0  0  0  0  0
   -0.2497   -1.1396    0.5870 H   0  0  0  0  0  0  0  0  0  0  0  0
   -0.2174   -0.7039   -1.1412 H   0  0  0  0  0  0  0  0  0  0  0  0
    6.1526    0.6468    1.1590 H   0  0  0  0  0  0  0  0  0  0  0  0
    6.2280    1.1395   -0.5341 H   0  0  0  0  0  0  0  0  0  0  0  0
   -4.7924   -0.9133   -1.3386 H   0  0  0  0  0  0  0  0  0  0  0  0
   -3.8800    0.9018    0.9555 H   0  0  0  0  0  0  0  0  0  0  0  0
   -3.8020    1.3061   -0.7805 H   0  0  0  0  0  0  0  0  0  0  0  0
    7.4455   -0.9758   -1.0961 H   0  0  0  0  0  0  0  0  0  0  0  0
    7.3692   -1.4674    0.6075 H   0  0  0  0  0  0  0  0  0  0  0  0
    8.2993   -0.0339    0.1384 H   0  0  0  0  0  0  0  0  0  0  0  0
   -6.4666    0.7029    0.6655 H   0  0  0  0  0  0  0  0  0  0  0  0
   -6.2824    1.0668   -1.0596 H   0  0  0  0  0  0  0  0  0  0  0  0
   -7.1002   -0.4176   -0.5526 H   0  0  0  0  0  0  0  0  0  0  0  0
   -4.0315   -2.2206    0.6100 H   0  0  0  0  0  0  0  0  0  0  0  0
   -5.0746   -1.2745    1.6862 H   0  0  0  0  0  0  0  0  0  0  0  0
   -5.7877   -2.3215    0.4472 H   0  0  0  0  0  0  0  0  0  0  0  0
  1 10  1  0  0  0  0
  1 11  1  0  0  0  0
  2 11  2  0  0  0  0
  3  4  1  0  0  0  0
  3  5  1  0  0  0  0
  3 15  1  0  0  0  0
  3 16  1  0  0  0  0
  4  6  1  0  0  0  0
  4 17  1  0  0  0  0
  4 18  1  0  0  0  0
  5  7  1  0  0  0  0
  5 19  1  0  0  0  0
  5 20  1  0  0  0  0
  6  8  1  0  0  0  0
  6 21  1  0  0  0  0
  6 22  1  0  0  0  0
  7 11  1  0  0  0  0
  7 23  1  0  0  0  0
  7 24  1  0  0  0  0
  8 12  1  0  0  0  0
  8 25  1  0  0  0  0
  8 26  1  0  0  0  0
  9 10  1  0  0  0  0
  9 13  1  0  0  0  0
  9 14  1  0  0  0  0
  9 27  1  0  0  0  0
 10 28  1  0  0  0  0
 10 29  1  0  0  0  0
 12 30  1  0  0  0  0
 12 31  1  0  0  0  0
 12 32  1  0  0  0  0
 13 33  1  0  0  0  0
 13 34  1  0  0  0  0
 13 35  1  0  0  0  0
 14 36  1  0  0  0  0
 14 37  1  0  0  0  0
 14 38  1  0  0  0  0
M  END
> <PUBCHEM_COMPOUND_CID>
79582

> <PUBCHEM_CONFORMER_RMSD>
1

> <PUBCHEM_CONFORMER_DIVERSEORDER>
1
149
12
5
87
231
467
51
250
390
366
322
180
16
373
24
434
245
380
3
91
498
128
65
370
202
471
45
505
2
25
54
327
78
210
92
243
438
35
38
6
19
204
295
77
495
387
27
517
112
325
84
156
418
18
217
476
265
20
360
100
475
133
500
107
110
39
317
229
32
177
117
283
349
441
227
303
52
256
311
183
493
405

> <PUBCHEM_MMFF94_PARTIAL_CHARGES>
5
1 -0.43
10 0.28
11 0.66
2 -0.57
7 0.06

> <PUBCHEM_EFFECTIVE_ROTOR_COUNT>
9

> <PUBCHEM_PHARMACOPHORE_FEATURES>
5
1 12 hydrophobe
1 2 acceptor
3 3 5 7 hydrophobe
3 4 6 8 hydrophobe
3 9 13 14 hydrophobe

> <PUBCHEM_HEAVY_ATOM_COUNT>
14

> <PUBCHEM_ATOM_DEF_STEREO_COUNT>
0

> <PUBCHEM_ATOM_UDEF_STEREO_COUNT>
0

> <PUBCHEM_BOND_DEF_STEREO_COUNT>
0

> <PUBCHEM_BOND_UDEF_STEREO_COUNT>
0

> <PUBCHEM_ISOTOPIC_ATOM_COUNT>
0

> <PUBCHEM_COMPONENT_COUNT>
1

> <PUBCHEM_CACTVS_TAUTO_COUNT>
1

> <PUBCHEM_CONFORMER_ID>
000136DE00000001

> <PUBCHEM_MMFF94_ENERGY>
4.2005

> <PUBCHEM_FEATURE_SELFOVERLAP>
25.386

> <PUBCHEM_SHAPE_FINGERPRINT>
10968037 39 18409729569170040959
11315181 36 18410016550310772937
12091667 2 16515404062676431245
13288520 33 18410012143774417381
13533116 47 16226033471819239512
13964095 4 17967810527424800725
14123238 8 17775567537541429662
1420 363 18343868822687422478
14251718 22 18187364333410746906
14251732 16 18411699932951871608
14251764 18 10159696884989074236
14251764 46 17704071790130460294
15048467 5 9583518716011850074
15242439 84 12540700327650776796
15501527 16 9223231844874837339
15716309 27 17988924478792470430
17834072 33 18113903792563618356
17834076 25 11169912784069393852
18006028 8 17917990581654651961
187816 3 17095242518858459785
19489759 90 17675924287679228229
20621476 38 18340487752214665526
20645477 56 9439404609814033370
20767249 213 7925910383297235198
21130983 4 11383828286513715618
220451 1 16660639657053067251
22224240 67 15913321399300477150
22896161 15 18410293653290123458
23035841 295 18333450945714022451
23402539 116 18260545636658485119
23521765 1 18342175561911407414
23559900 14 18261107529934212433
33684 2 18408882928268808367
42788 4 18413107260532736228
4463277 17 18343864419998018361
474229 33 18413390942669417726
54446538 1 12175619590180654691
57583515 80 18260548918108399201
59755656 520 17313099782682489074
8209 1 18409165506477153172

> <PUBCHEM_SHAPE_MULTIPOLES>
276.37
18.99
1.13
0.67
14.45
0.04
-0.01
4.18
0.62
-1.05
-0.18
-0.19
0.04
0.4

> <PUBCHEM_SHAPE_SELFOVERLAP>
503.95

> <PUBCHEM_SHAPE_VOLUME>
176.9

> <PUBCHEM_COORDINATE_TYPE>
2
5
10

$$$$
