7974
  -OEChem-11232109193D

 20 20  0     1  0  0  0  0  0999 V2000
   -0.3581    1.1986   -0.1883 N   0  0  0  0  0  0  0  0  0  0  0  0
   -1.0006   -0.0152    0.3311 C   0  0  2  0  0  0  0  0  0  0  0  0
   -0.2733   -1.2717   -0.1671 C   0  0  0  0  0  0  0  0  0  0  0  0
    1.2089   -1.2323    0.1948 C   0  0  0  0  0  0  0  0  0  0  0  0
    1.8404    0.0730   -0.2766 C   0  0  0  0  0  0  0  0  0  0  0  0
    1.0461    1.2808    0.2146 C   0  0  0  0  0  0  0  0  0  0  0  0
   -2.4635   -0.0333   -0.1085 C   0  0  0  0  0  0  0  0  0  0  0  0
   -0.9766    0.0053    1.4286 H   0  0  0  0  0  0  0  0  0  0  0  0
   -0.3760   -1.3603   -1.2567 H   0  0  0  0  0  0  0  0  0  0  0  0
   -0.7297   -2.1683    0.2688 H   0  0  0  0  0  0  0  0  0  0  0  0
    1.7286   -2.0855   -0.2550 H   0  0  0  0  0  0  0  0  0  0  0  0
    1.3223   -1.3223    1.2821 H   0  0  0  0  0  0  0  0  0  0  0  0
    2.8732    0.1362    0.0841 H   0  0  0  0  0  0  0  0  0  0  0  0
    1.8832    0.0822   -1.3732 H   0  0  0  0  0  0  0  0  0  0  0  0
    1.1205    1.3664    1.3056 H   0  0  0  0  0  0  0  0  0  0  0  0
    1.4825    2.1924   -0.2081 H   0  0  0  0  0  0  0  0  0  0  0  0
   -0.8549    2.0210    0.1532 H   0  0  0  0  0  0  0  0  0  0  0  0
   -2.9714   -0.9236    0.2779 H   0  0  0  0  0  0  0  0  0  0  0  0
   -2.9989    0.8444    0.2706 H   0  0  0  0  0  0  0  0  0  0  0  0
   -2.5561   -0.0404   -1.2005 H   0  0  0  0  0  0  0  0  0  0  0  0
  1  2  1  0  0  0  0
  1  6  1  0  0  0  0
  1 17  1  0  0  0  0
  2  3  1  0  0  0  0
  2  7  1  0  0  0  0
  2  8  1  0  0  0  0
  3  4  1  0  0  0  0
  3  9  1  0  0  0  0
  3 10  1  0  0  0  0
  4  5  1  0  0  0  0
  4 11  1  0  0  0  0
  4 12  1  0  0  0  0
  5  6  1  0  0  0  0
  5 13  1  0  0  0  0
  5 14  1  0  0  0  0
  6 15  1  0  0  0  0
  6 16  1  0  0  0  0
  7 18  1  0  0  0  0
  7 19  1  0  0  0  0
  7 20  1  0  0  0  0
M  END
> <PUBCHEM_COMPOUND_CID>
7974

> <PUBCHEM_CONFORMER_RMSD>
0.4

> <PUBCHEM_CONFORMER_DIVERSEORDER>
2
3
4
1

> <PUBCHEM_MMFF94_PARTIAL_CHARGES>
4
1 -0.9
17 0.36
2 0.27
6 0.27

> <PUBCHEM_EFFECTIVE_ROTOR_COUNT>
1.2

> <PUBCHEM_PHARMACOPHORE_FEATURES>
3
1 1 cation
1 1 donor
6 1 2 3 4 5 6 rings

> <PUBCHEM_HEAVY_ATOM_COUNT>
7

> <PUBCHEM_ATOM_DEF_STEREO_COUNT>
0

> <PUBCHEM_ATOM_UDEF_STEREO_COUNT>
1

> <PUBCHEM_BOND_DEF_STEREO_COUNT>
0

> <PUBCHEM_BOND_UDEF_STEREO_COUNT>
0

> <PUBCHEM_ISOTOPIC_ATOM_COUNT>
0

> <PUBCHEM_COMPONENT_COUNT>
1

> <PUBCHEM_CACTVS_TAUTO_COUNT>
1

> <PUBCHEM_CONFORMER_ID>
00001F2600000002

> <PUBCHEM_MMFF94_ENERGY>
-6.0536

> <PUBCHEM_FEATURE_SELFOVERLAP>
15.223

> <PUBCHEM_SHAPE_FINGERPRINT>
16714656 1 18411146835294653214
18185500 45 18412823568783318559
20096714 4 18339645649742924034
21040471 1 18194120939310390376
23552423 10 17901117321400910382
29004967 10 18261118464957507489

> <PUBCHEM_SHAPE_MULTIPOLES>
139.08
2.56
1.47
0.65
1.08
0.03
0.01
-0.04
-0.13
-0.4
0.02
-0.02
0.01
-0.01

> <PUBCHEM_SHAPE_SELFOVERLAP>
261.464

> <PUBCHEM_SHAPE_VOLUME>
85.4

> <PUBCHEM_COORDINATE_TYPE>
2
5
10

$$$$
