79782
  -OEChem-11232109213D

 21 21  0     0  0  0  0  0  0999 V2000
    3.0149    0.3516    0.3768 O   0  0  0  0  0  0  0  0  0  0  0  0
   -2.9696   -0.3859    1.4368 O   0  0  0  0  0  0  0  0  0  0  0  0
   -1.0203    0.1094   -0.5657 C   0  0  0  0  0  0  0  0  0  0  0  0
   -2.4697    0.0227   -0.9045 C   0  0  0  0  0  0  0  0  0  0  0  0
   -0.4620    1.3338   -0.1986 C   0  0  0  0  0  0  0  0  0  0  0  0
   -0.2226   -1.0338   -0.6161 C   0  0  0  0  0  0  0  0  0  0  0  0
    1.6918    0.2718    0.0678 C   0  0  0  0  0  0  0  0  0  0  0  0
    0.8940    1.4150    0.1181 C   0  0  0  0  0  0  0  0  0  0  0  0
    1.1334   -0.9527   -0.2993 C   0  0  0  0  0  0  0  0  0  0  0  0
   -3.3623   -0.2765    0.2799 C   0  0  0  0  0  0  0  0  0  0  0  0
    3.7725   -0.8553    0.3050 C   0  0  0  0  0  0  0  0  0  0  0  0
   -2.8161    0.9610   -1.3537 H   0  0  0  0  0  0  0  0  0  0  0  0
   -2.6390   -0.7608   -1.6528 H   0  0  0  0  0  0  0  0  0  0  0  0
   -1.0731    2.2314   -0.1538 H   0  0  0  0  0  0  0  0  0  0  0  0
   -0.6472   -1.9936   -0.8989 H   0  0  0  0  0  0  0  0  0  0  0  0
    1.3232    2.3714    0.4037 H   0  0  0  0  0  0  0  0  0  0  0  0
    1.6948   -1.8789   -0.3584 H   0  0  0  0  0  0  0  0  0  0  0  0
   -4.4340   -0.3852    0.0395 H   0  0  0  0  0  0  0  0  0  0  0  0
    3.8028   -1.2513   -0.7158 H   0  0  0  0  0  0  0  0  0  0  0  0
    3.4166   -1.5974    1.0277 H   0  0  0  0  0  0  0  0  0  0  0  0
    4.8023   -0.6075    0.5824 H   0  0  0  0  0  0  0  0  0  0  0  0
  1  7  1  0  0  0  0
  1 11  1  0  0  0  0
  2 10  2  0  0  0  0
  3  4  1  0  0  0  0
  3  5  2  0  0  0  0
  3  6  1  0  0  0  0
  4 10  1  0  0  0  0
  4 12  1  0  0  0  0
  4 13  1  0  0  0  0
  5  8  1  0  0  0  0
  5 14  1  0  0  0  0
  6  9  2  0  0  0  0
  6 15  1  0  0  0  0
  7  8  2  0  0  0  0
  7  9  1  0  0  0  0
  8 16  1  0  0  0  0
  9 17  1  0  0  0  0
 10 18  1  0  0  0  0
 11 19  1  0  0  0  0
 11 20  1  0  0  0  0
 11 21  1  0  0  0  0
M  END
> <PUBCHEM_COMPOUND_CID>
79782

> <PUBCHEM_CONFORMER_RMSD>
0.6

> <PUBCHEM_CONFORMER_DIVERSEORDER>
1
4
3
2

> <PUBCHEM_MMFF94_PARTIAL_CHARGES>
16
1 -0.36
10 0.45
11 0.28
14 0.15
15 0.15
16 0.15
17 0.15
18 0.06
2 -0.57
3 -0.14
4 0.2
5 -0.15
6 -0.15
7 0.08
8 -0.15
9 -0.15

> <PUBCHEM_EFFECTIVE_ROTOR_COUNT>
3

> <PUBCHEM_PHARMACOPHORE_FEATURES>
3
1 1 acceptor
1 2 acceptor
6 3 5 6 7 8 9 rings

> <PUBCHEM_HEAVY_ATOM_COUNT>
11

> <PUBCHEM_ATOM_DEF_STEREO_COUNT>
0

> <PUBCHEM_ATOM_UDEF_STEREO_COUNT>
0

> <PUBCHEM_BOND_DEF_STEREO_COUNT>
0

> <PUBCHEM_BOND_UDEF_STEREO_COUNT>
0

> <PUBCHEM_ISOTOPIC_ATOM_COUNT>
0

> <PUBCHEM_COMPONENT_COUNT>
1

> <PUBCHEM_CACTVS_TAUTO_COUNT>
2

> <PUBCHEM_CONFORMER_ID>
000137A600000001

> <PUBCHEM_MMFF94_ENERGY>
31.7282

> <PUBCHEM_FEATURE_SELFOVERLAP>
15.223

> <PUBCHEM_SHAPE_FINGERPRINT>
10219947 1 18342174474962915204
10857977 72 18260263066491480993
11062470 55 9079115574546396150
11471102 22 18410303522724147251
11543360 7 15791743992149858158
11769659 78 16443053998213238418
12032990 46 18409731729549276782
124424 183 18187072932648570821
15775835 57 16845304821324385027
16945 1 18343298175894072660
17844478 74 18259983760230733404
19026448 4 16950556688468655708
20201158 50 18186518791662725491
20281407 28 17894912931698081547
21061003 4 18408886230682206845
23402539 116 14548725206528855797
23402655 69 18054765327488835405
2748010 2 17983291530531322804
29004967 10 18335140890674830717
305870 269 16128109844782762463
5084963 1 18059277877152128245

> <PUBCHEM_SHAPE_MULTIPOLES>
214.64
5.46
1.26
0.92
0.86
0.26
0.14
-1.31
1.45
0.38
-0.06
-0.66
-0.1
0.13

> <PUBCHEM_SHAPE_SELFOVERLAP>
439.752

> <PUBCHEM_SHAPE_VOLUME>
124.2

> <PUBCHEM_COORDINATE_TYPE>
2
5
10

$$$$
