79828
  -OEChem-11232109443D

 12 11  0     0  0  0  0  0  0999 V2000
    2.0596   -0.8007   -0.4146 S   0  0  0  0  0  0  0  0  0  0  0  0
   -2.0596   -0.8012    0.4138 S   0  0  0  0  0  0  0  0  0  0  0  0
    0.6143    0.6008   -0.8212 S   0  0  0  0  0  0  0  0  0  0  0  0
   -0.6144    0.5999    0.8219 S   0  0  0  0  0  0  0  0  0  0  0  0
    3.3212    0.2004    0.4088 C   0  0  0  0  0  0  0  0  0  0  0  0
   -3.3212    0.2009   -0.4088 C   0  0  0  0  0  0  0  0  0  0  0  0
    2.9256    0.6424    1.3272 H   0  0  0  0  0  0  0  0  0  0  0  0
    3.6840    0.9876   -0.2577 H   0  0  0  0  0  0  0  0  0  0  0  0
    4.1666   -0.4405    0.6741 H   0  0  0  0  0  0  0  0  0  0  0  0
   -2.9255    0.6437   -1.3267 H   0  0  0  0  0  0  0  0  0  0  0  0
   -3.6841    0.9873    0.2584 H   0  0  0  0  0  0  0  0  0  0  0  0
   -4.1665   -0.4398   -0.6748 H   0  0  0  0  0  0  0  0  0  0  0  0
  1  3  1  0  0  0  0
  1  5  1  0  0  0  0
  2  4  1  0  0  0  0
  2  6  1  0  0  0  0
  3  4  1  0  0  0  0
  5  7  1  0  0  0  0
  5  8  1  0  0  0  0
  5  9  1  0  0  0  0
  6 10  1  0  0  0  0
  6 11  1  0  0  0  0
  6 12  1  0  0  0  0
M  END
> <PUBCHEM_COMPOUND_CID>
79828

> <PUBCHEM_CONFORMER_RMSD>
0.6

> <PUBCHEM_CONFORMER_DIVERSEORDER>
2
5
27
18
8
17
14
26
28
15
6
12
20
23
3
4
25
21
19
24
10
16
22
13
7
11
1
9

> <PUBCHEM_MMFF94_PARTIAL_CHARGES>
4
1 -0.23
2 -0.23
5 0.23
6 0.23

> <PUBCHEM_EFFECTIVE_ROTOR_COUNT>
3

> <PUBCHEM_PHARMACOPHORE_FEATURES>
3
1 5 hydrophobe
1 6 hydrophobe
4 1 2 3 4 hydrophobe

> <PUBCHEM_HEAVY_ATOM_COUNT>
6

> <PUBCHEM_ATOM_DEF_STEREO_COUNT>
0

> <PUBCHEM_ATOM_UDEF_STEREO_COUNT>
0

> <PUBCHEM_BOND_DEF_STEREO_COUNT>
0

> <PUBCHEM_BOND_UDEF_STEREO_COUNT>
0

> <PUBCHEM_ISOTOPIC_ATOM_COUNT>
0

> <PUBCHEM_COMPONENT_COUNT>
1

> <PUBCHEM_CACTVS_TAUTO_COUNT>
1

> <PUBCHEM_CONFORMER_ID>
000137D400000002

> <PUBCHEM_MMFF94_ENERGY>
-21.427

> <PUBCHEM_FEATURE_SELFOVERLAP>
15.223

> <PUBCHEM_SHAPE_FINGERPRINT>
11062470 55 18410009935723383797
14390081 3 10015587164280050535
16714656 1 11818996309325729091
20211469 26 18342458102066569566
20651381 22 15770057232923773988
22082395 3 14418136209827675444

> <PUBCHEM_SHAPE_MULTIPOLES>
138.88
5.56
1.03
1.02
0
0.1
0
0.42
0
0
0
0
-0.11
0.21

> <PUBCHEM_SHAPE_SELFOVERLAP>
192.447

> <PUBCHEM_SHAPE_VOLUME>
110.3

> <PUBCHEM_COORDINATE_TYPE>
2
5
10

$$$$
