80353
  -OEChem-11232108473D

 42 42  0     0  0  0  0  0  0999 V2000
    2.7294    0.6135   -0.0855 O   0  0  0  0  0  0  0  0  0  0  0  0
    3.8623   -1.3594   -0.4869 O   0  0  0  0  0  0  0  0  0  0  0  0
    1.5665    0.1850   -0.7952 C   0  0  0  0  0  0  0  0  0  0  0  0
    0.8818   -0.9326    0.0121 C   0  0  0  0  0  0  0  0  0  0  0  0
    0.6980    1.4238   -1.0837 C   0  0  0  0  0  0  0  0  0  0  0  0
   -0.4157   -1.4492   -0.6143 C   0  0  0  0  0  0  0  0  0  0  0  0
    0.1742    2.1477    0.1675 C   0  0  0  0  0  0  0  0  0  0  0  0
   -1.2837   -2.1960    0.4018 C   0  0  0  0  0  0  0  0  0  0  0  0
   -1.1934    2.8195   -0.0302 C   0  0  0  0  0  0  0  0  0  0  0  0
   -2.7311   -2.3939   -0.0563 C   0  0  0  0  0  0  0  0  0  0  0  0
   -2.3779    1.8631   -0.2533 C   0  0  0  0  0  0  0  0  0  0  0  0
   -3.5412   -1.1390   -0.4274 C   0  0  0  0  0  0  0  0  0  0  0  0
   -2.6301    0.9124    0.9232 C   0  0  0  0  0  0  0  0  0  0  0  0
   -3.7562   -0.1038    0.6870 C   0  0  0  0  0  0  0  0  0  0  0  0
    3.6458   -0.3606    0.1860 C   0  0  0  0  0  0  0  0  0  0  0  0
    4.3711   -0.0305    1.4553 C   0  0  0  0  0  0  0  0  0  0  0  0
    1.8858   -0.2177   -1.7658 H   0  0  0  0  0  0  0  0  0  0  0  0
    0.7002   -0.5787    1.0338 H   0  0  0  0  0  0  0  0  0  0  0  0
    1.5438   -1.7961    0.1401 H   0  0  0  0  0  0  0  0  0  0  0  0
   -0.1154    1.1502   -1.7602 H   0  0  0  0  0  0  0  0  0  0  0  0
    1.3080    2.1466   -1.6427 H   0  0  0  0  0  0  0  0  0  0  0  0
   -0.1826   -2.1074   -1.4598 H   0  0  0  0  0  0  0  0  0  0  0  0
   -0.9825   -0.6177   -1.0248 H   0  0  0  0  0  0  0  0  0  0  0  0
    0.9004    2.9260    0.4366 H   0  0  0  0  0  0  0  0  0  0  0  0
    0.1302    1.4875    1.0358 H   0  0  0  0  0  0  0  0  0  0  0  0
   -1.2855   -1.6848    1.3697 H   0  0  0  0  0  0  0  0  0  0  0  0
   -0.8360   -3.1801    0.5899 H   0  0  0  0  0  0  0  0  0  0  0  0
   -1.1326    3.5075   -0.8824 H   0  0  0  0  0  0  0  0  0  0  0  0
   -1.4054    3.4367    0.8518 H   0  0  0  0  0  0  0  0  0  0  0  0
   -3.2682   -2.9332    0.7343 H   0  0  0  0  0  0  0  0  0  0  0  0
   -2.7283   -3.0609   -0.9281 H   0  0  0  0  0  0  0  0  0  0  0  0
   -2.2252    1.3074   -1.1811 H   0  0  0  0  0  0  0  0  0  0  0  0
   -3.2797    2.4680   -0.4112 H   0  0  0  0  0  0  0  0  0  0  0  0
   -4.5375   -1.4989   -0.7198 H   0  0  0  0  0  0  0  0  0  0  0  0
   -3.1372   -0.6729   -1.3301 H   0  0  0  0  0  0  0  0  0  0  0  0
   -2.8999    1.5176    1.7983 H   0  0  0  0  0  0  0  0  0  0  0  0
   -1.7167    0.3881    1.1979 H   0  0  0  0  0  0  0  0  0  0  0  0
   -4.6674    0.4611    0.4509 H   0  0  0  0  0  0  0  0  0  0  0  0
   -3.9606   -0.6295    1.6278 H   0  0  0  0  0  0  0  0  0  0  0  0
    3.6610    0.0209    2.2845 H   0  0  0  0  0  0  0  0  0  0  0  0
    4.9020    0.9181    1.3431 H   0  0  0  0  0  0  0  0  0  0  0  0
    5.1014   -0.8158    1.6705 H   0  0  0  0  0  0  0  0  0  0  0  0
  1  3  1  0  0  0  0
  1 15  1  0  0  0  0
  2 15  2  0  0  0  0
  3  4  1  0  0  0  0
  3  5  1  0  0  0  0
  3 17  1  0  0  0  0
  4  6  1  0  0  0  0
  4 18  1  0  0  0  0
  4 19  1  0  0  0  0
  5  7  1  0  0  0  0
  5 20  1  0  0  0  0
  5 21  1  0  0  0  0
  6  8  1  0  0  0  0
  6 22  1  0  0  0  0
  6 23  1  0  0  0  0
  7  9  1  0  0  0  0
  7 24  1  0  0  0  0
  7 25  1  0  0  0  0
  8 10  1  0  0  0  0
  8 26  1  0  0  0  0
  8 27  1  0  0  0  0
  9 11  1  0  0  0  0
  9 28  1  0  0  0  0
  9 29  1  0  0  0  0
 10 12  1  0  0  0  0
 10 30  1  0  0  0  0
 10 31  1  0  0  0  0
 11 13  1  0  0  0  0
 11 32  1  0  0  0  0
 11 33  1  0  0  0  0
 12 14  1  0  0  0  0
 12 34  1  0  0  0  0
 12 35  1  0  0  0  0
 13 14  1  0  0  0  0
 13 36  1  0  0  0  0
 13 37  1  0  0  0  0
 14 38  1  0  0  0  0
 14 39  1  0  0  0  0
 15 16  1  0  0  0  0
 16 40  1  0  0  0  0
 16 41  1  0  0  0  0
 16 42  1  0  0  0  0
M  END
> <PUBCHEM_COMPOUND_CID>
80353

> <PUBCHEM_CONFORMER_RMSD>
0.6

> <PUBCHEM_CONFORMER_DIVERSEORDER>
1
19
42
26
24
35
108
124
74
10
127
55
29
84
88
33
57
112
90
79
2
110
17
92
38
4
36
39
75
82
104
118
51
96
32
72
14
34
58
67
98
134
54
107
53
125
94
52
62
86
115
114
45
121
6
78
132
105
73
27
68
66
119
87
9
76
7
80
81
63
131
106
56
48
83
13
122
5
99
40
43
128
22
93
30
129
20
97
28
65
89
133
41
49
120
21
47
100
25
31
95
109
91
18
15
123
16
59
11
77
44
85
126
46
101
70
71
135
117
116
102
103
64
12
130
3
113
69
111
8
60
23
37
61
50

> <PUBCHEM_MMFF94_PARTIAL_CHARGES>
5
1 -0.43
15 0.66
16 0.06
2 -0.57
3 0.28

> <PUBCHEM_EFFECTIVE_ROTOR_COUNT>
4.4

> <PUBCHEM_PHARMACOPHORE_FEATURES>
1
1 2 acceptor

> <PUBCHEM_HEAVY_ATOM_COUNT>
16

> <PUBCHEM_ATOM_DEF_STEREO_COUNT>
0

> <PUBCHEM_ATOM_UDEF_STEREO_COUNT>
0

> <PUBCHEM_BOND_DEF_STEREO_COUNT>
0

> <PUBCHEM_BOND_UDEF_STEREO_COUNT>
0

> <PUBCHEM_ISOTOPIC_ATOM_COUNT>
0

> <PUBCHEM_COMPONENT_COUNT>
1

> <PUBCHEM_CACTVS_TAUTO_COUNT>
1

> <PUBCHEM_CONFORMER_ID>
000139E100000001

> <PUBCHEM_MMFF94_ENERGY>
27.6014

> <PUBCHEM_FEATURE_SELFOVERLAP>
5.074

> <PUBCHEM_SHAPE_FINGERPRINT>
10130415 120 18188769573453181870
10493431 412 18127422155189710665
108231 29 18272369737417308648
11132069 177 18342459222841907345
12553582 1 18338814389156748749
13140716 1 18266749158819644129
14081887 123 18341883057290083896
14178342 30 18123484777811498225
14251711 518 17334787860177721783
15256400 18 18267022748105069402
15442244 35 18409171038643047710
17834072 14 18340475776911660849
17977361 122 18335135397480380411
192875 21 18270394027118132063
19930374 2 17825101506798432173
20261772 1 18338531767307459363
20388701 513 18412544297309265318
21249577 28 18335709385293900701
22959321 94 18334289868759237352
2306618 200 17967800648873568943
232386 152 18410302436023717885
23402539 116 18272361010402361999
23419403 2 17486181669401240977
23557571 272 18131083622649917942
23559900 14 18271248214667092508
2748010 2 17832442907593343701
57005193 9 18335698278988716029
7064713 232 18201171948951117529
7471813 234 17768793613870140231
81228 2 18335425651443869690
9925002 15 16624601179394609463

> <PUBCHEM_SHAPE_MULTIPOLES>
317.53
7.21
2.9
1.01
4.77
0.74
0.13
-2.35
1.94
-2.14
-0.17
0.42
0.07
-0.17

> <PUBCHEM_SHAPE_SELFOVERLAP>
601.858

> <PUBCHEM_SHAPE_VOLUME>
193.9

> <PUBCHEM_COORDINATE_TYPE>
2
5
10

$$$$
