80388
  -OEChem-11232108483D

 36 36  0     0  0  0  0  0  0999 V2000
    1.1227   -1.2410    0.2026 O   0  0  0  0  0  0  0  0  0  0  0  0
   -0.5918   -1.6605   -1.2821 O   0  0  0  0  0  0  0  0  0  0  0  0
    1.9133   -0.5764   -0.7809 C   0  0  0  0  0  0  0  0  0  0  0  0
    1.2927    0.7816   -1.1131 C   0  0  0  0  0  0  0  0  0  0  0  0
    3.3380   -0.4290   -0.2467 C   0  0  0  0  0  0  0  0  0  0  0  0
    1.3722    1.7540    0.0641 C   0  0  0  0  0  0  0  0  0  0  0  0
    3.4158    0.5473    0.9277 C   0  0  0  0  0  0  0  0  0  0  0  0
    2.8021    1.8997    0.5767 C   0  0  0  0  0  0  0  0  0  0  0  0
   -1.0255   -1.4979    1.1060 C   0  0  0  0  0  0  0  0  0  0  0  0
   -0.1774   -1.4737   -0.1465 C   0  0  0  0  0  0  0  0  0  0  0  0
   -2.4841   -1.1170    0.8529 C   0  0  0  0  0  0  0  0  0  0  0  0
   -2.6285    0.2907    0.2664 C   0  0  0  0  0  0  0  0  0  0  0  0
   -4.0985    0.6546    0.0565 C   0  0  0  0  0  0  0  0  0  0  0  0
   -4.2510    2.0676   -0.4836 C   0  0  0  0  0  0  0  0  0  0  0  0
    1.9464   -1.2035   -1.6807 H   0  0  0  0  0  0  0  0  0  0  0  0
    0.2495    0.7019   -1.4315 H   0  0  0  0  0  0  0  0  0  0  0  0
    1.8381    1.2165   -1.9607 H   0  0  0  0  0  0  0  0  0  0  0  0
    3.9942   -0.0760   -1.0516 H   0  0  0  0  0  0  0  0  0  0  0  0
    3.7158   -1.4040    0.0830 H   0  0  0  0  0  0  0  0  0  0  0  0
    0.7243    1.4067    0.8777 H   0  0  0  0  0  0  0  0  0  0  0  0
    0.9933    2.7347   -0.2454 H   0  0  0  0  0  0  0  0  0  0  0  0
    4.4623    0.6833    1.2230 H   0  0  0  0  0  0  0  0  0  0  0  0
    2.8940    0.1238    1.7947 H   0  0  0  0  0  0  0  0  0  0  0  0
    3.4156    2.3902   -0.1890 H   0  0  0  0  0  0  0  0  0  0  0  0
    2.8131    2.5496    1.4588 H   0  0  0  0  0  0  0  0  0  0  0  0
   -0.6010   -0.7979    1.8356 H   0  0  0  0  0  0  0  0  0  0  0  0
   -0.9705   -2.5065    1.5291 H   0  0  0  0  0  0  0  0  0  0  0  0
   -3.0346   -1.1807    1.7991 H   0  0  0  0  0  0  0  0  0  0  0  0
   -2.9385   -1.8434    0.1678 H   0  0  0  0  0  0  0  0  0  0  0  0
   -2.1073    0.3671   -0.6933 H   0  0  0  0  0  0  0  0  0  0  0  0
   -2.1632    1.0167    0.9444 H   0  0  0  0  0  0  0  0  0  0  0  0
   -4.5603   -0.0515   -0.6434 H   0  0  0  0  0  0  0  0  0  0  0  0
   -4.6417    0.5739    1.0052 H   0  0  0  0  0  0  0  0  0  0  0  0
   -3.8281    2.8009    0.2105 H   0  0  0  0  0  0  0  0  0  0  0  0
   -3.7449    2.1756   -1.4483 H   0  0  0  0  0  0  0  0  0  0  0  0
   -5.3095    2.3065   -0.6268 H   0  0  0  0  0  0  0  0  0  0  0  0
  1  3  1  0  0  0  0
  1 10  1  0  0  0  0
  2 10  2  0  0  0  0
  3  4  1  0  0  0  0
  3  5  1  0  0  0  0
  3 15  1  0  0  0  0
  4  6  1  0  0  0  0
  4 16  1  0  0  0  0
  4 17  1  0  0  0  0
  5  7  1  0  0  0  0
  5 18  1  0  0  0  0
  5 19  1  0  0  0  0
  6  8  1  0  0  0  0
  6 20  1  0  0  0  0
  6 21  1  0  0  0  0
  7  8  1  0  0  0  0
  7 22  1  0  0  0  0
  7 23  1  0  0  0  0
  8 24  1  0  0  0  0
  8 25  1  0  0  0  0
  9 10  1  0  0  0  0
  9 11  1  0  0  0  0
  9 26  1  0  0  0  0
  9 27  1  0  0  0  0
 11 12  1  0  0  0  0
 11 28  1  0  0  0  0
 11 29  1  0  0  0  0
 12 13  1  0  0  0  0
 12 30  1  0  0  0  0
 12 31  1  0  0  0  0
 13 14  1  0  0  0  0
 13 32  1  0  0  0  0
 13 33  1  0  0  0  0
 14 34  1  0  0  0  0
 14 35  1  0  0  0  0
 14 36  1  0  0  0  0
M  END
> <PUBCHEM_COMPOUND_CID>
80388

> <PUBCHEM_CONFORMER_RMSD>
0.8

> <PUBCHEM_CONFORMER_DIVERSEORDER>
2
1
125
130
138
58
91
122
142
9
101
149
17
20
85
75
37
115
93
74
8
124
139
117
131
14
33
143
11
18
147
118
108
112
144
68
145
73
60
4
40
13
56
114
126
19
99
54
132
26
6
30
51
3
84
52
31
151
109
46
100
137
83
61
49
53
76
59
136
36
12
94
43
38
47
110
87
22
107
69
80
103
27
72
28
41
116
71
44
70
62
97
128
25
10
104
79
78
113
34
48
50
64
102
7
150
15
98
23
29
35
90
45
5
81
77
129
105
95
140
106
24
96
148
16
89
120
133
135
39
65
32
111
66
119
134
146
42
127
86
141
123
67
63
121
82
55
92
57
21
88

> <PUBCHEM_MMFF94_PARTIAL_CHARGES>
5
1 -0.43
10 0.66
2 -0.57
3 0.28
9 0.06

> <PUBCHEM_EFFECTIVE_ROTOR_COUNT>
7.2

> <PUBCHEM_PHARMACOPHORE_FEATURES>
4
1 14 hydrophobe
1 2 acceptor
4 9 11 12 13 hydrophobe
6 3 4 5 6 7 8 rings

> <PUBCHEM_HEAVY_ATOM_COUNT>
14

> <PUBCHEM_ATOM_DEF_STEREO_COUNT>
0

> <PUBCHEM_ATOM_UDEF_STEREO_COUNT>
0

> <PUBCHEM_BOND_DEF_STEREO_COUNT>
0

> <PUBCHEM_BOND_UDEF_STEREO_COUNT>
0

> <PUBCHEM_ISOTOPIC_ATOM_COUNT>
0

> <PUBCHEM_COMPONENT_COUNT>
1

> <PUBCHEM_CACTVS_TAUTO_COUNT>
1

> <PUBCHEM_CONFORMER_ID>
00013A0400000002

> <PUBCHEM_MMFF94_ENERGY>
8.3586

> <PUBCHEM_FEATURE_SELFOVERLAP>
20.297

> <PUBCHEM_SHAPE_FINGERPRINT>
10064457 181 16009039396751742424
10608611 8 18338239365944613881
10618630 7 8862944974465759865
11086676 242 16008744710523986100
11615756 56 18411140234009384793
12006461 19 9294990380988817237
12077114 3 18338795731528515200
122479 349 18409166636275072041
12654215 9 18341336625944321904
13922767 16 18412263921828377584
14251710 61 8718830907339698425
14251732 17 18337945701745397624
14251764 30 12829766250423979456
15375462 189 11602830119986608339
15775835 57 18272373117571835945
17834069 15 18259984898502392850
18186145 218 17988940962924392675
19107657 162 8935002546986640329
20233049 118 18261118434961606900
20442098 301 10881690147565086697
21249577 43 18409730642870043625
21524375 3 18335140878111935507
21713013 43 10735891572500235585
22892500 29 17846493742862871736
23419403 2 16762218901968734154
305870 269 18408601491604425338
351380 180 18410568483731089017
449060 23 11383829359954690283
8050 44 18270122434586986377
83771 10 8142086468077293915

> <PUBCHEM_SHAPE_MULTIPOLES>
276.37
7.16
2.21
1.09
4.88
0.45
0.07
4.02
-0.61
0.7
-0.04
-0.21
-0.18
0.87

> <PUBCHEM_SHAPE_SELFOVERLAP>
531.546

> <PUBCHEM_SHAPE_VOLUME>
167

> <PUBCHEM_COORDINATE_TYPE>
2
5
10

$$$$
