80395
  -OEChem-11232108493D

 19 19  0     0  0  0  0  0  0999 V2000
   -1.1651    1.7919    0.0000 O   0  0  0  0  0  0  0  0  0  0  0  0
    3.1094   -0.3634    0.0003 O   0  0  0  0  0  0  0  0  0  0  0  0
   -3.2386    0.2701    0.0003 O   0  0  0  0  0  0  0  0  0  0  0  0
    0.9788    0.7374    0.0000 C   0  0  0  0  0  0  0  0  0  0  0  0
   -0.4136    0.6528   -0.0001 C   0  0  0  0  0  0  0  0  0  0  0  0
   -1.0365   -0.5953   -0.0002 C   0  0  0  0  0  0  0  0  0  0  0  0
    1.7481   -0.4262    0.0000 C   0  0  0  0  0  0  0  0  0  0  0  0
   -0.2672   -1.7589   -0.0001 C   0  0  0  0  0  0  0  0  0  0  0  0
    1.1250   -1.6743    0.0000 C   0  0  0  0  0  0  0  0  0  0  0  0
    1.6483    2.0744   -0.0001 C   0  0  0  0  0  0  0  0  0  0  0  0
   -2.4886   -0.7085    0.0000 C   0  0  0  0  0  0  0  0  0  0  0  0
   -0.7363   -2.7394   -0.0001 H   0  0  0  0  0  0  0  0  0  0  0  0
    1.7186   -2.5844    0.0001 H   0  0  0  0  0  0  0  0  0  0  0  0
    2.2703    2.1898   -0.8944 H   0  0  0  0  0  0  0  0  0  0  0  0
    0.9410    2.9094   -0.0005 H   0  0  0  0  0  0  0  0  0  0  0  0
    2.2697    2.1901    0.8945 H   0  0  0  0  0  0  0  0  0  0  0  0
   -2.9071   -1.7294   -0.0001 H   0  0  0  0  0  0  0  0  0  0  0  0
   -2.1114    1.5961   -0.0590 H   0  0  0  0  0  0  0  0  0  0  0  0
    3.4197    0.5551    0.0005 H   0  0  0  0  0  0  0  0  0  0  0  0
  1  5  1  0  0  0  0
  1 18  1  0  0  0  0
  2  7  1  0  0  0  0
  2 19  1  0  0  0  0
  3 11  2  0  0  0  0
  4  5  1  0  0  0  0
  4  7  2  0  0  0  0
  4 10  1  0  0  0  0
  5  6  2  0  0  0  0
  6  8  1  0  0  0  0
  6 11  1  0  0  0  0
  7  9  1  0  0  0  0
  8  9  2  0  0  0  0
  8 12  1  0  0  0  0
  9 13  1  0  0  0  0
 10 14  1  0  0  0  0
 10 15  1  0  0  0  0
 10 16  1  0  0  0  0
 11 17  1  0  0  0  0
M  END
> <PUBCHEM_COMPOUND_CID>
80395

> <PUBCHEM_CONFORMER_RMSD>
0.4

> <PUBCHEM_CONFORMER_DIVERSEORDER>
1
2

> <PUBCHEM_MMFF94_PARTIAL_CHARGES>
16
1 -0.53
10 0.14
11 0.42
12 0.15
13 0.15
17 0.06
18 0.45
19 0.45
2 -0.53
3 -0.57
4 -0.14
5 0.08
6 0.09
7 0.08
8 -0.15
9 -0.15

> <PUBCHEM_EFFECTIVE_ROTOR_COUNT>
1

> <PUBCHEM_PHARMACOPHORE_FEATURES>
4
1 1 donor
1 2 donor
1 3 acceptor
6 4 5 6 7 8 9 rings

> <PUBCHEM_HEAVY_ATOM_COUNT>
11

> <PUBCHEM_ATOM_DEF_STEREO_COUNT>
0

> <PUBCHEM_ATOM_UDEF_STEREO_COUNT>
0

> <PUBCHEM_BOND_DEF_STEREO_COUNT>
0

> <PUBCHEM_BOND_UDEF_STEREO_COUNT>
0

> <PUBCHEM_ISOTOPIC_ATOM_COUNT>
0

> <PUBCHEM_COMPONENT_COUNT>
1

> <PUBCHEM_CACTVS_TAUTO_COUNT>
12

> <PUBCHEM_CONFORMER_ID>
00013A0B00000001

> <PUBCHEM_MMFF94_ENERGY>
31.2914

> <PUBCHEM_FEATURE_SELFOVERLAP>
20.297

> <PUBCHEM_SHAPE_FINGERPRINT>
11206711 2 18336549317566928628
12423570 1 11880278530381540163
13380535 76 18123464140540353416
14325111 11 18338797943742510561
16945 1 18410855451543729314
193761 8 17690279734624068650
20201158 50 18408601435832887439
21040471 1 18050567640341544228
2334 1 17978511158658175302
23402655 69 18195792004618709901
23552423 10 18335137652069055463
23559900 14 17838072747132639420
241688 4 17906456523973962482
2748010 2 18122348144564565702
5084963 1 18202846556193120002
528886 8 18411695500049912347

> <PUBCHEM_SHAPE_MULTIPOLES>
208.77
3.64
2.02
0.59
1.09
0.32
0
0.2
0
-0.57
0
-0.01
-0.02
0

> <PUBCHEM_SHAPE_SELFOVERLAP>
441.894

> <PUBCHEM_SHAPE_VOLUME>
117.3

> <PUBCHEM_COORDINATE_TYPE>
2
5
10

$$$$
