80407
  -OEChem-11232109083D

 20 20  0     0  0  0  0  0  0999 V2000
   -3.7137   -0.3471   -1.0065 S   0  0  0  0  0  0  0  0  0  0  0  0
    2.7545    0.4112   -0.2321 O   0  0  0  0  0  0  0  0  0  0  0  0
   -1.3359    0.0075    0.3468 C   0  0  0  0  0  0  0  0  0  0  0  0
   -0.7788    1.2731    0.1637 C   0  0  0  0  0  0  0  0  0  0  0  0
   -0.5182   -1.1226    0.3357 C   0  0  0  0  0  0  0  0  0  0  0  0
    1.4134    0.2786   -0.0418 C   0  0  0  0  0  0  0  0  0  0  0  0
   -2.8053   -0.1369    0.5553 C   0  0  0  0  0  0  0  0  0  0  0  0
    0.5958    1.4087   -0.0305 C   0  0  0  0  0  0  0  0  0  0  0  0
    0.8564   -0.9870    0.1415 C   0  0  0  0  0  0  0  0  0  0  0  0
    3.5318   -0.7854   -0.2321 C   0  0  0  0  0  0  0  0  0  0  0  0
   -1.4045    2.1618    0.1695 H   0  0  0  0  0  0  0  0  0  0  0  0
   -0.9407   -2.1141    0.4765 H   0  0  0  0  0  0  0  0  0  0  0  0
   -3.0193   -0.9966    1.2005 H   0  0  0  0  0  0  0  0  0  0  0  0
   -3.2063    0.7419    1.0728 H   0  0  0  0  0  0  0  0  0  0  0  0
    1.0240    2.3971   -0.1730 H   0  0  0  0  0  0  0  0  0  0  0  0
    1.4327   -1.9059    0.1439 H   0  0  0  0  0  0  0  0  0  0  0  0
    3.2514   -1.4473   -1.0585 H   0  0  0  0  0  0  0  0  0  0  0  0
    3.4905   -1.2921    0.7380 H   0  0  0  0  0  0  0  0  0  0  0  0
    4.5743   -0.4936   -0.3961 H   0  0  0  0  0  0  0  0  0  0  0  0
   -3.1405   -1.5052   -1.3662 H   0  0  0  0  0  0  0  0  0  0  0  0
  1  7  1  0  0  0  0
  1 20  1  0  0  0  0
  2  6  1  0  0  0  0
  2 10  1  0  0  0  0
  3  4  2  0  0  0  0
  3  5  1  0  0  0  0
  3  7  1  0  0  0  0
  4  8  1  0  0  0  0
  4 11  1  0  0  0  0
  5  9  2  0  0  0  0
  5 12  1  0  0  0  0
  6  8  2  0  0  0  0
  6  9  1  0  0  0  0
  7 13  1  0  0  0  0
  7 14  1  0  0  0  0
  8 15  1  0  0  0  0
  9 16  1  0  0  0  0
 10 17  1  0  0  0  0
 10 18  1  0  0  0  0
 10 19  1  0  0  0  0
M  END
> <PUBCHEM_COMPOUND_CID>
80407

> <PUBCHEM_CONFORMER_RMSD>
0.4

> <PUBCHEM_CONFORMER_DIVERSEORDER>
1
4
3
2

> <PUBCHEM_MMFF94_PARTIAL_CHARGES>
15
1 -0.41
10 0.28
11 0.15
12 0.15
15 0.15
16 0.15
2 -0.36
20 0.18
3 -0.14
4 -0.15
5 -0.15
6 0.08
7 0.37
8 -0.15
9 -0.15

> <PUBCHEM_EFFECTIVE_ROTOR_COUNT>
2

> <PUBCHEM_PHARMACOPHORE_FEATURES>
2
1 2 acceptor
6 3 4 5 6 8 9 rings

> <PUBCHEM_HEAVY_ATOM_COUNT>
10

> <PUBCHEM_ATOM_DEF_STEREO_COUNT>
0

> <PUBCHEM_ATOM_UDEF_STEREO_COUNT>
0

> <PUBCHEM_BOND_DEF_STEREO_COUNT>
0

> <PUBCHEM_BOND_UDEF_STEREO_COUNT>
0

> <PUBCHEM_ISOTOPIC_ATOM_COUNT>
0

> <PUBCHEM_COMPONENT_COUNT>
1

> <PUBCHEM_CACTVS_TAUTO_COUNT>
1

> <PUBCHEM_CONFORMER_ID>
00013A1700000001

> <PUBCHEM_MMFF94_ENERGY>
31.4609

> <PUBCHEM_FEATURE_SELFOVERLAP>
10.148

> <PUBCHEM_SHAPE_FINGERPRINT>
10219947 1 18341898497481124238
11062470 55 14562532877080335039
11206711 2 18262238820035535189
11401426 45 18411408514487495621
11769659 78 17060337401000261903
12032990 46 18409177618301037995
12897270 3 18335137592203140461
14128692 85 17988637553823936519
14325111 11 18410016537119870272
14911166 2 18334857229369881999
14993402 34 18272087218710310399
16945 1 18408328791002761536
19026448 4 15936416653747400408
193761 8 17617665791976192066
20201158 50 18407761425875960675
20653085 51 15502386633337246909
21040471 1 18120941864955630297
21293036 1 18334292089078000767
23402539 116 18272364239874357374
23402655 69 18264191536392884637
23552423 10 18043258035827516474
2748010 2 18048606107260420154
369184 2 15339118992430516298
5084963 1 18344149184930013024

> <PUBCHEM_SHAPE_MULTIPOLES>
203.78
5.43
1.3
0.8
0.43
0.23
0.08
-1.32
1.47
-0.25
-0.04
0.5
-0.06
-0.09

> <PUBCHEM_SHAPE_SELFOVERLAP>
404.928

> <PUBCHEM_SHAPE_VOLUME>
123.6

> <PUBCHEM_COORDINATE_TYPE>
2
5
10

$$$$
