80455
  -OEChem-11232108543D

 19 19  0     0  0  0  0  0  0999 V2000
   -1.5633   -0.0528    0.1213 O   0  0  0  0  0  0  0  0  0  0  0  0
    1.1097   -0.9192   -0.4550 O   0  0  0  0  0  0  0  0  0  0  0  0
   -0.6136    0.7504   -0.5840 C   0  0  0  0  0  0  0  0  0  0  0  0
    0.7542    0.3687   -0.2073 C   0  0  0  0  0  0  0  0  0  0  0  0
   -2.8921    0.2986   -0.2272 C   0  0  0  0  0  0  0  0  0  0  0  0
    1.7986    1.0565    0.3654 C   0  0  0  0  0  0  0  0  0  0  0  0
   -3.8532   -0.5793    0.5456 C   0  0  0  0  0  0  0  0  0  0  0  0
    2.8644    0.1321    0.4769 C   0  0  0  0  0  0  0  0  0  0  0  0
    2.3953   -1.0550   -0.0358 C   0  0  0  0  0  0  0  0  0  0  0  0
   -0.7881    1.8068   -0.3480 H   0  0  0  0  0  0  0  0  0  0  0  0
   -0.7483    0.6104   -1.6631 H   0  0  0  0  0  0  0  0  0  0  0  0
   -3.0761    1.3504    0.0193 H   0  0  0  0  0  0  0  0  0  0  0  0
   -3.0456    0.1539   -1.3025 H   0  0  0  0  0  0  0  0  0  0  0  0
    1.7951    2.0945    0.6662 H   0  0  0  0  0  0  0  0  0  0  0  0
   -4.8904   -0.3343    0.3000 H   0  0  0  0  0  0  0  0  0  0  0  0
   -3.6768   -1.6362    0.3198 H   0  0  0  0  0  0  0  0  0  0  0  0
   -3.7068   -0.4556    1.6237 H   0  0  0  0  0  0  0  0  0  0  0  0
    3.8509    0.3087    0.8804 H   0  0  0  0  0  0  0  0  0  0  0  0
    2.8282   -2.0360   -0.1665 H   0  0  0  0  0  0  0  0  0  0  0  0
  1  3  1  0  0  0  0
  1  5  1  0  0  0  0
  2  4  1  0  0  0  0
  2  9  1  0  0  0  0
  3  4  1  0  0  0  0
  3 10  1  0  0  0  0
  3 11  1  0  0  0  0
  4  6  2  0  0  0  0
  5  7  1  0  0  0  0
  5 12  1  0  0  0  0
  5 13  1  0  0  0  0
  6  8  1  0  0  0  0
  6 14  1  0  0  0  0
  7 15  1  0  0  0  0
  7 16  1  0  0  0  0
  7 17  1  0  0  0  0
  8  9  2  0  0  0  0
  8 18  1  0  0  0  0
  9 19  1  0  0  0  0
M  END
> <PUBCHEM_COMPOUND_CID>
80455

> <PUBCHEM_CONFORMER_RMSD>
0.6

> <PUBCHEM_CONFORMER_DIVERSEORDER>
1
8
10
5
4
9
2
6
3
7

> <PUBCHEM_MMFF94_PARTIAL_CHARGES>
11
1 -0.56
14 0.15
18 0.15
19 0.15
2 -0.28
3 0.46
4 -0.04
5 0.28
6 -0.15
8 -0.15
9 -0.01

> <PUBCHEM_EFFECTIVE_ROTOR_COUNT>
3

> <PUBCHEM_PHARMACOPHORE_FEATURES>
3
1 1 acceptor
1 2 acceptor
5 2 4 6 8 9 rings

> <PUBCHEM_HEAVY_ATOM_COUNT>
9

> <PUBCHEM_ATOM_DEF_STEREO_COUNT>
0

> <PUBCHEM_ATOM_UDEF_STEREO_COUNT>
0

> <PUBCHEM_BOND_DEF_STEREO_COUNT>
0

> <PUBCHEM_BOND_UDEF_STEREO_COUNT>
0

> <PUBCHEM_ISOTOPIC_ATOM_COUNT>
0

> <PUBCHEM_COMPONENT_COUNT>
1

> <PUBCHEM_CACTVS_TAUTO_COUNT>
1

> <PUBCHEM_CONFORMER_ID>
00013A4700000001

> <PUBCHEM_MMFF94_ENERGY>
5.2864

> <PUBCHEM_FEATURE_SELFOVERLAP>
15.225

> <PUBCHEM_SHAPE_FINGERPRINT>
10219947 1 18341892999933567445
10857977 72 18259978288637576873
11062470 55 16153426151209046812
12932764 1 17703502255443736525
14325111 11 18411135840241691829
14390081 3 11240002239588100875
20201158 50 18334295357632742955
20645477 70 18270109116051839183
20871998 22 17628926638366320366
29004967 10 18340199705172509720

> <PUBCHEM_SHAPE_MULTIPOLES>
173.48
5.81
1.07
0.74
4.96
0.05
0.01
1.13
1.17
-0.4
-0.02
0.03
-0.02
0.36

> <PUBCHEM_SHAPE_SELFOVERLAP>
344.818

> <PUBCHEM_SHAPE_VOLUME>
105.2

> <PUBCHEM_COORDINATE_TYPE>
2
5
10

$$$$
