81006
  -OEChem-11232111033D

 38 37  0     0  0  0  0  0  0999 V2000
   -3.5232    0.4412    0.0125 O   0  0  0  0  0  0  0  0  0  0  0  0
   -2.3895   -1.5700    0.0334 O   0  0  0  0  0  0  0  0  0  0  0  0
    2.6400   -0.2963    0.0042 C   0  0  0  0  0  0  0  0  0  0  0  0
    3.9315    0.5269    0.0047 C   0  0  0  0  0  0  0  0  0  0  0  0
    1.3726    0.5601    0.0623 C   0  0  0  0  0  0  0  0  0  0  0  0
    5.1983   -0.3278   -0.0790 C   0  0  0  0  0  0  0  0  0  0  0  0
    0.1137   -0.3135    0.0464 C   0  0  0  0  0  0  0  0  0  0  0  0
    6.4563    0.5382   -0.0015 C   0  0  0  0  0  0  0  0  0  0  0  0
   -1.1695    0.5121    0.0730 C   0  0  0  0  0  0  0  0  0  0  0  0
    7.7188   -0.3080   -0.0456 C   0  0  0  0  0  0  0  0  0  0  0  0
   -2.4099   -0.3459    0.0387 C   0  0  0  0  0  0  0  0  0  0  0  0
   -4.7711   -0.2584   -0.0244 C   0  0  0  0  0  0  0  0  0  0  0  0
   -5.9034    0.7568   -0.0500 C   0  0  0  0  0  0  0  0  0  0  0  0
   -7.2643    0.0845   -0.0748 C   0  0  0  0  0  0  0  0  0  0  0  0
    2.6527   -0.9827    0.8600 H   0  0  0  0  0  0  0  0  0  0  0  0
    2.6146   -0.9178   -0.8996 H   0  0  0  0  0  0  0  0  0  0  0  0
    3.9631    1.1345    0.9178 H   0  0  0  0  0  0  0  0  0  0  0  0
    3.9128    1.2266   -0.8400 H   0  0  0  0  0  0  0  0  0  0  0  0
    1.3548    1.2461   -0.7930 H   0  0  0  0  0  0  0  0  0  0  0  0
    1.3839    1.1739    0.9708 H   0  0  0  0  0  0  0  0  0  0  0  0
    5.1959   -0.8979   -1.0157 H   0  0  0  0  0  0  0  0  0  0  0  0
    5.2021   -1.0547    0.7423 H   0  0  0  0  0  0  0  0  0  0  0  0
    0.1305   -0.9930    0.9080 H   0  0  0  0  0  0  0  0  0  0  0  0
    0.1209   -0.9467   -0.8499 H   0  0  0  0  0  0  0  0  0  0  0  0
    6.4695    1.2505   -0.8347 H   0  0  0  0  0  0  0  0  0  0  0  0
    6.4502    1.1232    0.9256 H   0  0  0  0  0  0  0  0  0  0  0  0
   -1.1998    1.1178    0.9855 H   0  0  0  0  0  0  0  0  0  0  0  0
   -1.1936    1.1787   -0.7964 H   0  0  0  0  0  0  0  0  0  0  0  0
    8.6056    0.3311    0.0093 H   0  0  0  0  0  0  0  0  0  0  0  0
    7.7517   -1.0078    0.7955 H   0  0  0  0  0  0  0  0  0  0  0  0
    7.7722   -0.8843   -0.9747 H   0  0  0  0  0  0  0  0  0  0  0  0
   -4.8075   -0.8865   -0.9223 H   0  0  0  0  0  0  0  0  0  0  0  0
   -4.8549   -0.8942    0.8648 H   0  0  0  0  0  0  0  0  0  0  0  0
   -5.8286    1.4132    0.8253 H   0  0  0  0  0  0  0  0  0  0  0  0
   -5.7934    1.4084   -0.9251 H   0  0  0  0  0  0  0  0  0  0  0  0
   -8.0589    0.8369   -0.0934 H   0  0  0  0  0  0  0  0  0  0  0  0
   -7.4094   -0.5407    0.8120 H   0  0  0  0  0  0  0  0  0  0  0  0
   -7.3737   -0.5470   -0.9623 H   0  0  0  0  0  0  0  0  0  0  0  0
  1 11  1  0  0  0  0
  1 12  1  0  0  0  0
  2 11  2  0  0  0  0
  3  4  1  0  0  0  0
  3  5  1  0  0  0  0
  3 15  1  0  0  0  0
  3 16  1  0  0  0  0
  4  6  1  0  0  0  0
  4 17  1  0  0  0  0
  4 18  1  0  0  0  0
  5  7  1  0  0  0  0
  5 19  1  0  0  0  0
  5 20  1  0  0  0  0
  6  8  1  0  0  0  0
  6 21  1  0  0  0  0
  6 22  1  0  0  0  0
  7  9  1  0  0  0  0
  7 23  1  0  0  0  0
  7 24  1  0  0  0  0
  8 10  1  0  0  0  0
  8 25  1  0  0  0  0
  8 26  1  0  0  0  0
  9 11  1  0  0  0  0
  9 27  1  0  0  0  0
  9 28  1  0  0  0  0
 10 29  1  0  0  0  0
 10 30  1  0  0  0  0
 10 31  1  0  0  0  0
 12 13  1  0  0  0  0
 12 32  1  0  0  0  0
 12 33  1  0  0  0  0
 13 14  1  0  0  0  0
 13 34  1  0  0  0  0
 13 35  1  0  0  0  0
 14 36  1  0  0  0  0
 14 37  1  0  0  0  0
 14 38  1  0  0  0  0
M  END
> <PUBCHEM_COMPOUND_CID>
81006

> <PUBCHEM_CONFORMER_RMSD>
1

> <PUBCHEM_CONFORMER_DIVERSEORDER>
1
78
136
63
17
127
99
29
97
87
7
90
10
93
30
131
19
145
154
6
8
18
155
41
157
55
65
141
133
42
48
20
26
67
159
124
148
153
70
114
3
51
139
115
68
122
84
37
123
128
38
81
64
118
22
135
44
108
23
31
25
104
82
4
79
15
71
96
152
9
11
89
149
73
160
16
83
98
113
60
137
62
74
158
57
110
72
39
161
129
12
100
116
14
105
106
46
132
150
103
144
34
86
40
58
49
151
32
146
117
134
56
28
54
66
52
88
147
94
92
85
2
156
76
142
5
119
140
121
111
33
95
35
126
45
91
75
59
102
13
43
125
120
69
50
21
101
77
112
27
80
61
36
138
109
24
107
143
53
47
130

> <PUBCHEM_MMFF94_PARTIAL_CHARGES>
5
1 -0.43
11 0.66
12 0.28
2 -0.57
9 0.06

> <PUBCHEM_EFFECTIVE_ROTOR_COUNT>
10

> <PUBCHEM_PHARMACOPHORE_FEATURES>
3
1 10 hydrophobe
1 14 hydrophobe
1 2 acceptor

> <PUBCHEM_HEAVY_ATOM_COUNT>
14

> <PUBCHEM_ATOM_DEF_STEREO_COUNT>
0

> <PUBCHEM_ATOM_UDEF_STEREO_COUNT>
0

> <PUBCHEM_BOND_DEF_STEREO_COUNT>
0

> <PUBCHEM_BOND_UDEF_STEREO_COUNT>
0

> <PUBCHEM_ISOTOPIC_ATOM_COUNT>
0

> <PUBCHEM_COMPONENT_COUNT>
1

> <PUBCHEM_CACTVS_TAUTO_COUNT>
1

> <PUBCHEM_CONFORMER_ID>
00013C6E00000001

> <PUBCHEM_MMFF94_ENERGY>
-0.2755

> <PUBCHEM_FEATURE_SELFOVERLAP>
15.223

> <PUBCHEM_SHAPE_FINGERPRINT>
10968037 39 18412262839639011309
11315181 36 17703513271813084138
12091667 2 18410575089823131561
13533116 47 17774721953060500134
13964095 4 18409729547415701085
1420 363 8862943887596557760
14251764 18 18410854347758096979
14251764 46 18410856559650345573
17834072 8 18413670218511661192
17834076 25 18410573989446431437
18006028 8 17561363980531882176
20281389 69 18114178635837030500
20621476 8 18261109647669204142
20767249 213 18412545418290539141
23035841 295 18259983773748553522
23402539 116 18343297093462041855
23521765 1 18341894090834070564
23559900 14 18130498738282743968
28498 318 18340769256976046326
33684 2 18410854352037148939
3545911 37 18410292510180021738
42788 4 18410856564014040553
4463277 17 18334294275274701396
57583515 80 17203891868221090255
59567204 34 18262514785609188845
59755656 520 16805320024344925371
8209 1 18412825785149856676

> <PUBCHEM_SHAPE_MULTIPOLES>
276.37
21.67
0.92
0.61
6.84
0.14
0
-1.28
0.76
-0.3
-0.01
0.04
-0.01
0.04

> <PUBCHEM_SHAPE_SELFOVERLAP>
500.681

> <PUBCHEM_SHAPE_VOLUME>
177.5

> <PUBCHEM_COORDINATE_TYPE>
2
5
10

$$$$
