81045
  -OEChem-11232109033D

 47 46  0     0  0  0  0  0  0999 V2000
   -3.1450   -0.2328   -0.4647 O   0  0  0  0  0  0  0  0  0  0  0  0
   -3.2585   -1.5181    1.4500 O   0  0  0  0  0  0  0  0  0  0  0  0
    1.3138   -1.6286   -0.6894 C   0  0  0  0  0  0  0  0  0  0  0  0
   -0.0546   -1.9603   -0.0890 C   0  0  0  0  0  0  0  0  0  0  0  0
    2.3974   -1.3813    0.3644 C   0  0  0  0  0  0  0  0  0  0  0  0
   -1.1002   -2.1850   -1.1864 C   0  0  0  0  0  0  0  0  0  0  0  0
    3.7595   -1.0247   -0.2351 C   0  0  0  0  0  0  0  0  0  0  0  0
   -2.4843   -2.4885   -0.6198 C   0  0  0  0  0  0  0  0  0  0  0  0
   -1.5200    2.1682   -0.2548 C   0  0  0  0  0  0  0  0  0  0  0  0
    4.8184   -0.8602    0.8560 C   0  0  0  0  0  0  0  0  0  0  0  0
   -2.4551    1.6624    0.8425 C   0  0  0  0  0  0  0  0  0  0  0  0
   -0.2973    2.9161    0.2840 C   0  0  0  0  0  0  0  0  0  0  0  0
   -3.6371    0.8982    0.2609 C   0  0  0  0  0  0  0  0  0  0  0  0
    0.6257    3.4436   -0.8151 C   0  0  0  0  0  0  0  0  0  0  0  0
   -3.0049   -1.3792    0.2604 C   0  0  0  0  0  0  0  0  0  0  0  0
    6.1830   -0.5434    0.2648 C   0  0  0  0  0  0  0  0  0  0  0  0
    1.8592    4.1136   -0.2287 C   0  0  0  0  0  0  0  0  0  0  0  0
    1.6312   -2.4498   -1.3439 H   0  0  0  0  0  0  0  0  0  0  0  0
    1.2231   -0.7363   -1.3215 H   0  0  0  0  0  0  0  0  0  0  0  0
    0.0244   -2.8587    0.5346 H   0  0  0  0  0  0  0  0  0  0  0  0
   -0.3598   -1.1365    0.5661 H   0  0  0  0  0  0  0  0  0  0  0  0
    2.0738   -0.5709    1.0295 H   0  0  0  0  0  0  0  0  0  0  0  0
    2.4978   -2.2798    0.9859 H   0  0  0  0  0  0  0  0  0  0  0  0
   -1.1489   -1.2978   -1.8295 H   0  0  0  0  0  0  0  0  0  0  0  0
   -0.7881   -3.0215   -1.8232 H   0  0  0  0  0  0  0  0  0  0  0  0
    3.6745   -0.0972   -0.8140 H   0  0  0  0  0  0  0  0  0  0  0  0
    4.0691   -1.8136   -0.9311 H   0  0  0  0  0  0  0  0  0  0  0  0
   -2.4520   -3.4093   -0.0256 H   0  0  0  0  0  0  0  0  0  0  0  0
   -3.2058   -2.6559   -1.4273 H   0  0  0  0  0  0  0  0  0  0  0  0
   -1.1684    1.3267   -0.8638 H   0  0  0  0  0  0  0  0  0  0  0  0
   -2.0780    2.8324   -0.9266 H   0  0  0  0  0  0  0  0  0  0  0  0
    4.5254   -0.0554    1.5402 H   0  0  0  0  0  0  0  0  0  0  0  0
    4.8901   -1.7799    1.4482 H   0  0  0  0  0  0  0  0  0  0  0  0
   -1.8887    1.0128    1.5201 H   0  0  0  0  0  0  0  0  0  0  0  0
   -2.8256    2.5093    1.4311 H   0  0  0  0  0  0  0  0  0  0  0  0
    0.2689    2.2423    0.9395 H   0  0  0  0  0  0  0  0  0  0  0  0
   -0.6332    3.7547    0.9065 H   0  0  0  0  0  0  0  0  0  0  0  0
   -4.3431    0.6011    1.0449 H   0  0  0  0  0  0  0  0  0  0  0  0
   -4.1901    1.5261   -0.4459 H   0  0  0  0  0  0  0  0  0  0  0  0
    0.0841    4.1612   -1.4420 H   0  0  0  0  0  0  0  0  0  0  0  0
    0.9402    2.6174   -1.4633 H   0  0  0  0  0  0  0  0  0  0  0  0
    6.1546    0.3878   -0.3099 H   0  0  0  0  0  0  0  0  0  0  0  0
    6.5195   -1.3467   -0.3985 H   0  0  0  0  0  0  0  0  0  0  0  0
    6.9241   -0.4283    1.0620 H   0  0  0  0  0  0  0  0  0  0  0  0
    1.5810    4.9609    0.4060 H   0  0  0  0  0  0  0  0  0  0  0  0
    2.4400    3.4078    0.3739 H   0  0  0  0  0  0  0  0  0  0  0  0
    2.5045    4.4866   -1.0302 H   0  0  0  0  0  0  0  0  0  0  0  0
  1 13  1  0  0  0  0
  1 15  1  0  0  0  0
  2 15  2  0  0  0  0
  3  4  1  0  0  0  0
  3  5  1  0  0  0  0
  3 18  1  0  0  0  0
  3 19  1  0  0  0  0
  4  6  1  0  0  0  0
  4 20  1  0  0  0  0
  4 21  1  0  0  0  0
  5  7  1  0  0  0  0
  5 22  1  0  0  0  0
  5 23  1  0  0  0  0
  6  8  1  0  0  0  0
  6 24  1  0  0  0  0
  6 25  1  0  0  0  0
  7 10  1  0  0  0  0
  7 26  1  0  0  0  0
  7 27  1  0  0  0  0
  8 15  1  0  0  0  0
  8 28  1  0  0  0  0
  8 29  1  0  0  0  0
  9 11  1  0  0  0  0
  9 12  1  0  0  0  0
  9 30  1  0  0  0  0
  9 31  1  0  0  0  0
 10 16  1  0  0  0  0
 10 32  1  0  0  0  0
 10 33  1  0  0  0  0
 11 13  1  0  0  0  0
 11 34  1  0  0  0  0
 11 35  1  0  0  0  0
 12 14  1  0  0  0  0
 12 36  1  0  0  0  0
 12 37  1  0  0  0  0
 13 38  1  0  0  0  0
 13 39  1  0  0  0  0
 14 17  1  0  0  0  0
 14 40  1  0  0  0  0
 14 41  1  0  0  0  0
 16 42  1  0  0  0  0
 16 43  1  0  0  0  0
 16 44  1  0  0  0  0
 17 45  1  0  0  0  0
 17 46  1  0  0  0  0
 17 47  1  0  0  0  0
M  END
> <PUBCHEM_COMPOUND_CID>
81045

> <PUBCHEM_CONFORMER_RMSD>
1.2

> <PUBCHEM_CONFORMER_DIVERSEORDER>
2
61
1
78
7
96
112
27
93
111
42
75
72
73
36
48
21
50
70
25
5
34
107
97
4
43
80
57
54
94
100
103
82
108
113
12
13
71
23
63
49
41
3
83
31
89
132
20
58
92
76
52
74
120
102
37
84
106
56
8
109
91
44
17
124
125
131
28
66
98
59
122
26
87
116
18
53
123
11
114
29
30
121
99
32
86
105
79
127
47
62
51
33
119
77
35
38
128
46
10
45
55
14
19
6
65
39
69
126
118
90
16
64
104
9
85
40
67
68
24
117
115
133
88
95
15
101
129
22
60
130
110
81

> <PUBCHEM_MMFF94_PARTIAL_CHARGES>
5
1 -0.43
13 0.28
15 0.66
2 -0.57
8 0.06

> <PUBCHEM_EFFECTIVE_ROTOR_COUNT>
13

> <PUBCHEM_PHARMACOPHORE_FEATURES>
4
1 16 hydrophobe
1 17 hydrophobe
1 2 acceptor
4 9 11 12 14 hydrophobe

> <PUBCHEM_HEAVY_ATOM_COUNT>
17

> <PUBCHEM_ATOM_DEF_STEREO_COUNT>
0

> <PUBCHEM_ATOM_UDEF_STEREO_COUNT>
0

> <PUBCHEM_BOND_DEF_STEREO_COUNT>
0

> <PUBCHEM_BOND_UDEF_STEREO_COUNT>
0

> <PUBCHEM_ISOTOPIC_ATOM_COUNT>
0

> <PUBCHEM_COMPONENT_COUNT>
1

> <PUBCHEM_CACTVS_TAUTO_COUNT>
1

> <PUBCHEM_CONFORMER_ID>
00013C9500000002

> <PUBCHEM_MMFF94_ENERGY>
-0.7313

> <PUBCHEM_FEATURE_SELFOVERLAP>
20.297

> <PUBCHEM_SHAPE_FINGERPRINT>
10087517 78 18340475747627442914
11595378 159 18116695362740583442
12596602 18 17530685416321868978
13941206 138 17178855125670098988
14142880 1 18127979615973967353
167882 2 18121771996888553757
18336668 15 18113901576603587332
20621476 82 18270111306410916786
20765182 5 18412261740565668708
3524813 1 17988067916232110362
5282940 2 18119818164304502716
57091435 65 18121504823673293232
9925002 15 17270584004387505806

> <PUBCHEM_SHAPE_MULTIPOLES>
338.11
9.09
4.9
1.01
13.87
5.88
0.06
-3.93
2.48
-0.5
-1.09
-0.3
-0.22
-0.57

> <PUBCHEM_SHAPE_SELFOVERLAP>
616.452

> <PUBCHEM_SHAPE_VOLUME>
215.3

> <PUBCHEM_COORDINATE_TYPE>
2
5
10

$$$$
