81040
  -OEChem-11232109093D

 33 33  0     0  0  0  0  0  0999 V2000
    0.9674   -0.0363    0.1618 O   0  0  0  0  0  0  0  0  0  0  0  0
   -0.1023    1.7081   -0.9104 O   0  0  0  0  0  0  0  0  0  0  0  0
   -1.3696    0.0288    0.2626 C   0  0  0  0  0  0  0  0  0  0  0  0
   -2.4392    1.0885    0.5358 C   0  0  0  0  0  0  0  0  0  0  0  0
   -1.8573   -1.0114   -0.7483 C   0  0  0  0  0  0  0  0  0  0  0  0
   -3.7623    0.4579    0.9618 C   0  0  0  0  0  0  0  0  0  0  0  0
   -3.1819   -1.6370   -0.3197 C   0  0  0  0  0  0  0  0  0  0  0  0
   -4.2449   -0.5761   -0.0511 C   0  0  0  0  0  0  0  0  0  0  0  0
   -0.1180    0.6838   -0.2412 C   0  0  0  0  0  0  0  0  0  0  0  0
    2.2362    0.4795   -0.2531 C   0  0  0  0  0  0  0  0  0  0  0  0
    3.3344   -0.4328    0.2745 C   0  0  0  0  0  0  0  0  0  0  0  0
    4.7210    0.0686   -0.1189 C   0  0  0  0  0  0  0  0  0  0  0  0
    5.8163   -0.8214    0.4463 C   0  0  0  0  0  0  0  0  0  0  0  0
   -1.1417   -0.4659    1.2166 H   0  0  0  0  0  0  0  0  0  0  0  0
   -2.6129    1.6972   -0.3613 H   0  0  0  0  0  0  0  0  0  0  0  0
   -2.0939    1.7791    1.3152 H   0  0  0  0  0  0  0  0  0  0  0  0
   -1.1040   -1.7994   -0.8701 H   0  0  0  0  0  0  0  0  0  0  0  0
   -1.9776   -0.5463   -1.7358 H   0  0  0  0  0  0  0  0  0  0  0  0
   -4.5215    1.2390    1.0815 H   0  0  0  0  0  0  0  0  0  0  0  0
   -3.6393   -0.0204    1.9413 H   0  0  0  0  0  0  0  0  0  0  0  0
   -3.0258   -2.2349    0.5867 H   0  0  0  0  0  0  0  0  0  0  0  0
   -3.5343   -2.3234   -1.0979 H   0  0  0  0  0  0  0  0  0  0  0  0
   -5.1590   -1.0549    0.3177 H   0  0  0  0  0  0  0  0  0  0  0  0
   -4.5040   -0.0730   -0.9909 H   0  0  0  0  0  0  0  0  0  0  0  0
    2.3621    1.4922    0.1475 H   0  0  0  0  0  0  0  0  0  0  0  0
    2.2710    0.5169   -1.3482 H   0  0  0  0  0  0  0  0  0  0  0  0
    3.1760   -1.4505   -0.1038 H   0  0  0  0  0  0  0  0  0  0  0  0
    3.2517   -0.5033    1.3664 H   0  0  0  0  0  0  0  0  0  0  0  0
    4.8659    1.0912    0.2485 H   0  0  0  0  0  0  0  0  0  0  0  0
    4.8092    0.1006   -1.2111 H   0  0  0  0  0  0  0  0  0  0  0  0
    5.7762   -0.8467    1.5400 H   0  0  0  0  0  0  0  0  0  0  0  0
    5.7192   -1.8466    0.0748 H   0  0  0  0  0  0  0  0  0  0  0  0
    6.8007   -0.4449    0.1511 H   0  0  0  0  0  0  0  0  0  0  0  0
  1  9  1  0  0  0  0
  1 10  1  0  0  0  0
  2  9  2  0  0  0  0
  3  4  1  0  0  0  0
  3  5  1  0  0  0  0
  3  9  1  0  0  0  0
  3 14  1  0  0  0  0
  4  6  1  0  0  0  0
  4 15  1  0  0  0  0
  4 16  1  0  0  0  0
  5  7  1  0  0  0  0
  5 17  1  0  0  0  0
  5 18  1  0  0  0  0
  6  8  1  0  0  0  0
  6 19  1  0  0  0  0
  6 20  1  0  0  0  0
  7  8  1  0  0  0  0
  7 21  1  0  0  0  0
  7 22  1  0  0  0  0
  8 23  1  0  0  0  0
  8 24  1  0  0  0  0
 10 11  1  0  0  0  0
 10 25  1  0  0  0  0
 10 26  1  0  0  0  0
 11 12  1  0  0  0  0
 11 27  1  0  0  0  0
 11 28  1  0  0  0  0
 12 13  1  0  0  0  0
 12 29  1  0  0  0  0
 12 30  1  0  0  0  0
 13 31  1  0  0  0  0
 13 32  1  0  0  0  0
 13 33  1  0  0  0  0
M  END
> <PUBCHEM_COMPOUND_CID>
81040

> <PUBCHEM_CONFORMER_RMSD>
0.6

> <PUBCHEM_CONFORMER_DIVERSEORDER>
1
331
6
448
450
424
168
257
205
356
444
308
411
371
23
18
416
47
402
52
167
321
386
29
462
88
39
10
138
84
414
186
476
335
27
206
192
106
456
112
189
4
85
81
357
197
413
326
193
71
149
214
33
422
332
336
366
256
445
239
469
198
401
131
111
315
173
3
473
446
145
169
157
16
38
281
11
320
105
369
244
391
79
338
212
378
44
345
172
387
119
51
298
34
472
375
255
83
350
121
107
466
383
153
241
236
8
389
459
376
183
15
174
201
191
461
37
209
19
439
301
32
407
429
280
455
300
436
220
435
31
337
2
404
176
17
428
288
352
305
342
334
415
60
312
184
283
30
313
134
374
284
213
458
291
98
311
55
382
470
339
474
123
133
392
287
147
451
230
381
341
354
96
390
87
93
234
303
388
438
72
188
304
385
155
362
90
348
359
370
109
122
108
181
442
171
48
317
322
140
285
433
409
103
63
277
269
418
417
431
319
202
190
160
294
307
118
403
177
25
286
309
69
441
128
316
318
73
40
467
412
251
229
440
143
410
210
464
97
377
187
323
268
427
340
237
361
261
45
74
163
14
20
224
263
347
148
380
447
235
35
62
113
114
137
330
394
282
70
66
360
196
434
78
397
232
130
200
194
405
42
65
426
245
75
135
226
9
454
26
329
421
219
351
363
399
207
306
211
452
267
124
125
100
21
12
142
180
358
231
430
344
162
46
233
199
276
310
36
258
242
218
161
327
115
272
49
238
7
314
478
182
249
328
217
43
423
156
179
154
419
68
443
290
379
117
364
246
367
465
127
165
215
129
243
195
355
136
324
248
449
274
384
104
262
468
225
425
120
373
86
164
253
150
396
203
346
254
67
460
144
13
372
216
185
296
343
146
54
437
457
271
408
178
297
76
139
325
56
260
5
223
247
275
59
279
463
151
204
265
270
50
295
99
395
64
221
102
80
126
61
278
273
432
24
110
170
95
53
92
292
89
400
28
158
141
302
264
353
77
259
289
349
299
266
406
41
477
166
58
152
208
227
420
250
132
116
393
365
471
475
22
252
57
228
82
333
222
159
175
101
368
453
398
94
240
293
91

> <PUBCHEM_MMFF94_PARTIAL_CHARGES>
5
1 -0.43
10 0.28
2 -0.57
3 0.06
9 0.66

> <PUBCHEM_EFFECTIVE_ROTOR_COUNT>
6.2

> <PUBCHEM_PHARMACOPHORE_FEATURES>
3
1 13 hydrophobe
1 2 acceptor
6 3 4 5 6 7 8 rings

> <PUBCHEM_HEAVY_ATOM_COUNT>
13

> <PUBCHEM_ATOM_DEF_STEREO_COUNT>
0

> <PUBCHEM_ATOM_UDEF_STEREO_COUNT>
0

> <PUBCHEM_BOND_DEF_STEREO_COUNT>
0

> <PUBCHEM_BOND_UDEF_STEREO_COUNT>
0

> <PUBCHEM_ISOTOPIC_ATOM_COUNT>
0

> <PUBCHEM_COMPONENT_COUNT>
1

> <PUBCHEM_CACTVS_TAUTO_COUNT>
1

> <PUBCHEM_CONFORMER_ID>
00013C9000000001

> <PUBCHEM_MMFF94_ENERGY>
5.7197

> <PUBCHEM_FEATURE_SELFOVERLAP>
15.223

> <PUBCHEM_SHAPE_FINGERPRINT>
10465860 250 17489588969550810008
11046707 91 18410572898535274760
114248 4 13767927927315910090
12119455 92 14261635014580185628
12251169 10 18273779349936137660
124424 183 17203889669456284849
13288520 33 18410011022793234406
13760787 5 17749396983273151484
14123238 8 18343302570088617442
17804303 29 18202285835454299777
17834072 33 18341053008016463260
1813 80 17895487946525815830
18186145 218 15213019383753646484
187816 3 16515685541658101904
200 152 17240480299800469888
20279233 1 16487263174522197564
20281475 54 18409445903907663414
204376 136 13398629463573779844
20645477 70 13912870996588000472
20828058 44 18202846552230507410
21339142 126 18260264114205324549
22485316 2 18410009923160241818
2297311 6 17775017781923019324
23402539 116 17967529052247558308
23559900 14 18130215068614811216
42 15 18272371971015963034
449060 50 16845575318406884580
57265010 4 17775289352346300179
573450 72 18342454829048243714

> <PUBCHEM_SHAPE_MULTIPOLES>
255.8
10.78
1.33
0.84
13.89
0.07
0
3.19
-2.08
-0.95
0.19
-0.22
-0.1
-0.68

> <PUBCHEM_SHAPE_SELFOVERLAP>
492.359

> <PUBCHEM_SHAPE_VOLUME>
154.9

> <PUBCHEM_COORDINATE_TYPE>
2
5
10

$$$$
