81464
  -OEChem-11232109253D

 41 40  0     0  0  0  0  0  0999 V2000
   -0.5175    0.1562   -0.0885 O   0  0  0  0  0  0  0  0  0  0  0  0
   -1.7712   -1.7774    0.0117 O   0  0  0  0  0  0  0  0  0  0  0  0
    4.3833    0.5486    0.0280 C   0  0  0  0  0  0  0  0  0  0  0  0
    3.1950   -0.4155    0.0260 C   0  0  0  0  0  0  0  0  0  0  0  0
    5.7406   -0.1581    0.0893 C   0  0  0  0  0  0  0  0  0  0  0  0
    1.8698    0.3403   -0.0597 C   0  0  0  0  0  0  0  0  0  0  0  0
    6.9294    0.8010    0.0169 C   0  0  0  0  0  0  0  0  0  0  0  0
    0.6791   -0.6070   -0.0203 C   0  0  0  0  0  0  0  0  0  0  0  0
   -4.2117   -0.3071    0.0085 C   0  0  0  0  0  0  0  0  0  0  0  0
   -5.3873    0.6734   -0.0484 C   0  0  0  0  0  0  0  0  0  0  0  0
   -2.8590    0.3952   -0.1087 C   0  0  0  0  0  0  0  0  0  0  0  0
   -6.7229   -0.0546    0.1052 C   0  0  0  0  0  0  0  0  0  0  0  0
    8.2503    0.0466    0.0090 C   0  0  0  0  0  0  0  0  0  0  0  0
   -1.6862   -0.5593   -0.0634 C   0  0  0  0  0  0  0  0  0  0  0  0
   -7.8919    0.9176    0.0944 C   0  0  0  0  0  0  0  0  0  0  0  0
    4.2973    1.2321    0.8818 H   0  0  0  0  0  0  0  0  0  0  0  0
    4.3442    1.1671   -0.8775 H   0  0  0  0  0  0  0  0  0  0  0  0
    3.2817   -1.1044   -0.8228 H   0  0  0  0  0  0  0  0  0  0  0  0
    3.2175   -1.0223    0.9393 H   0  0  0  0  0  0  0  0  0  0  0  0
    5.8054   -0.8729   -0.7407 H   0  0  0  0  0  0  0  0  0  0  0  0
    5.8003   -0.7433    1.0153 H   0  0  0  0  0  0  0  0  0  0  0  0
    1.8308    0.9368   -0.9798 H   0  0  0  0  0  0  0  0  0  0  0  0
    1.7881    1.0579    0.7664 H   0  0  0  0  0  0  0  0  0  0  0  0
    6.9056    1.4858    0.8723 H   0  0  0  0  0  0  0  0  0  0  0  0
    6.8595    1.4116   -0.8906 H   0  0  0  0  0  0  0  0  0  0  0  0
    0.7212   -1.2975   -0.8709 H   0  0  0  0  0  0  0  0  0  0  0  0
    0.6899   -1.1846    0.9116 H   0  0  0  0  0  0  0  0  0  0  0  0
   -4.2471   -0.8693    0.9503 H   0  0  0  0  0  0  0  0  0  0  0  0
   -4.3116   -1.0446   -0.7979 H   0  0  0  0  0  0  0  0  0  0  0  0
   -5.3684    1.2156   -1.0015 H   0  0  0  0  0  0  0  0  0  0  0  0
   -5.2800    1.4178    0.7500 H   0  0  0  0  0  0  0  0  0  0  0  0
   -2.7481    1.1074    0.7170 H   0  0  0  0  0  0  0  0  0  0  0  0
   -2.8104    0.9427   -1.0567 H   0  0  0  0  0  0  0  0  0  0  0  0
   -6.7349   -0.6176    1.0458 H   0  0  0  0  0  0  0  0  0  0  0  0
   -6.8476   -0.7788   -0.7082 H   0  0  0  0  0  0  0  0  0  0  0  0
    8.3640   -0.5544    0.9168 H   0  0  0  0  0  0  0  0  0  0  0  0
    9.0876    0.7498   -0.0401 H   0  0  0  0  0  0  0  0  0  0  0  0
    8.3163   -0.6209   -0.8563 H   0  0  0  0  0  0  0  0  0  0  0  0
   -7.8140    1.6342    0.9183 H   0  0  0  0  0  0  0  0  0  0  0  0
   -7.9279    1.4770   -0.8458 H   0  0  0  0  0  0  0  0  0  0  0  0
   -8.8365    0.3758    0.2037 H   0  0  0  0  0  0  0  0  0  0  0  0
  1  8  1  0  0  0  0
  1 14  1  0  0  0  0
  2 14  2  0  0  0  0
  3  4  1  0  0  0  0
  3  5  1  0  0  0  0
  3 16  1  0  0  0  0
  3 17  1  0  0  0  0
  4  6  1  0  0  0  0
  4 18  1  0  0  0  0
  4 19  1  0  0  0  0
  5  7  1  0  0  0  0
  5 20  1  0  0  0  0
  5 21  1  0  0  0  0
  6  8  1  0  0  0  0
  6 22  1  0  0  0  0
  6 23  1  0  0  0  0
  7 13  1  0  0  0  0
  7 24  1  0  0  0  0
  7 25  1  0  0  0  0
  8 26  1  0  0  0  0
  8 27  1  0  0  0  0
  9 10  1  0  0  0  0
  9 11  1  0  0  0  0
  9 28  1  0  0  0  0
  9 29  1  0  0  0  0
 10 12  1  0  0  0  0
 10 30  1  0  0  0  0
 10 31  1  0  0  0  0
 11 14  1  0  0  0  0
 11 32  1  0  0  0  0
 11 33  1  0  0  0  0
 12 15  1  0  0  0  0
 12 34  1  0  0  0  0
 12 35  1  0  0  0  0
 13 36  1  0  0  0  0
 13 37  1  0  0  0  0
 13 38  1  0  0  0  0
 15 39  1  0  0  0  0
 15 40  1  0  0  0  0
 15 41  1  0  0  0  0
M  END
> <PUBCHEM_COMPOUND_CID>
81464

> <PUBCHEM_CONFORMER_RMSD>
1.2

> <PUBCHEM_CONFORMER_DIVERSEORDER>
1
36
34
38
9
51
16
54
47
14
20
48
21
44
3
17
32
24
7
2
37
6
35
26
43
29
18
8
31
42
12
49
4
10
13
19
33
46
28
25
39
11
50
45
5
30
27
53
40
15
22
23
41
52

> <PUBCHEM_MMFF94_PARTIAL_CHARGES>
5
1 -0.43
11 0.06
14 0.66
2 -0.57
8 0.28

> <PUBCHEM_EFFECTIVE_ROTOR_COUNT>
11

> <PUBCHEM_PHARMACOPHORE_FEATURES>
5
1 13 hydrophobe
1 15 hydrophobe
1 2 acceptor
4 9 10 11 12 hydrophobe
5 3 4 5 6 7 hydrophobe

> <PUBCHEM_HEAVY_ATOM_COUNT>
15

> <PUBCHEM_ATOM_DEF_STEREO_COUNT>
0

> <PUBCHEM_ATOM_UDEF_STEREO_COUNT>
0

> <PUBCHEM_BOND_DEF_STEREO_COUNT>
0

> <PUBCHEM_BOND_UDEF_STEREO_COUNT>
0

> <PUBCHEM_ISOTOPIC_ATOM_COUNT>
0

> <PUBCHEM_COMPONENT_COUNT>
1

> <PUBCHEM_CACTVS_TAUTO_COUNT>
1

> <PUBCHEM_CONFORMER_ID>
00013E3800000001

> <PUBCHEM_MMFF94_ENERGY>
-0.4025

> <PUBCHEM_FEATURE_SELFOVERLAP>
25.374

> <PUBCHEM_SHAPE_FINGERPRINT>
11315181 36 17060623334089735179
12091667 2 18272651260355512407
13533116 47 17846215497696688974
13964095 4 13182742529119309921
13968360 50 15482677853366421484
14123256 10 10664102250909983948
1420 363 8214144066463008048
14251764 18 18334290972233704842
14251764 46 18410856559639789572
14729087 3 18409727340430511693
15048467 5 18410855464423148584
15690457 1 11097859605458735313
15716309 27 12829489259614001920
17834076 25 18131350812839578540
18006028 8 10737286848814466839
20281389 69 18259982669636347540
20621476 8 18408885118739065734
20735858 18 14057001619932246889
20767249 213 18410856568229737152
21130983 4 18408042918016690276
21150785 3 14836404730895482464
21267235 1 9367343747654256559
21304253 13 18408040727700128893
22224240 67 15213020466043025488
23035841 295 9151172056483258437
23402539 116 18201995551942744503
23521765 1 18341894091045125604
246663 6 11097856280837315953
28498 318 18202285776131924854
33532 11 10953731206084855368
33684 2 18411136930809911656
3545911 37 18410573989873731830
42788 4 18410573989456987445
57583515 80 13110964236372189151
59567204 34 18130508523369075841
59755656 520 18114175363393925171
8209 1 18202001027852044652

> <PUBCHEM_SHAPE_MULTIPOLES>
296.95
24.87
1
0.61
6.99
0.2
0
-6.89
-0.87
-0.49
0
0
-0.01
-0.02

> <PUBCHEM_SHAPE_SELFOVERLAP>
538.319

> <PUBCHEM_SHAPE_VOLUME>
190.4

> <PUBCHEM_COORDINATE_TYPE>
2
5
10

$$$$
