81573
  -OEChem-11232108483D

 50 49  0     1  0  0  0  0  0999 V2000
    2.4366    0.4398   -0.2413 O   0  0  0  0  0  0  0  0  0  0  0  0
    4.4232   -0.7329   -0.2811 O   0  0  0  0  0  0  0  0  0  0  0  0
    1.7309   -0.7665    0.0799 C   0  0  1  0  0  0  0  0  0  0  0  0
    0.2217   -0.4430    0.2102 C   0  0  0  0  0  0  0  0  0  0  0  0
   -0.1169    0.6298    1.2551 C   0  0  0  0  0  0  0  0  0  0  0  0
    1.9379   -1.7273   -1.1014 C   0  0  0  0  0  0  0  0  0  0  0  0
   -1.6003    0.8669    1.3299 C   0  0  0  0  0  0  0  0  0  0  0  0
   -2.3154    1.7468    0.6024 C   0  0  0  0  0  0  0  0  0  0  0  0
    2.3057   -1.2648    1.3884 C   0  0  0  0  0  0  0  0  0  0  0  0
   -3.8047    1.9579    0.7565 C   0  0  0  0  0  0  0  0  0  0  0  0
   -4.6126    1.0895   -0.2105 C   0  0  0  0  0  0  0  0  0  0  0  0
   -1.6394    2.6256   -0.4157 C   0  0  0  0  0  0  0  0  0  0  0  0
    3.7864    0.3055   -0.3938 C   0  0  0  0  0  0  0  0  0  0  0  0
    2.4451   -2.5358    1.7855 C   0  0  0  0  0  0  0  0  0  0  0  0
   -4.4039   -0.3716    0.0726 C   0  0  0  0  0  0  0  0  0  0  0  0
    4.3748    1.6563   -0.7277 C   0  0  0  0  0  0  0  0  0  0  0  0
   -3.8921   -1.3020   -0.7553 C   0  0  0  0  0  0  0  0  0  0  0  0
    5.8830    1.5971   -0.8958 C   0  0  0  0  0  0  0  0  0  0  0  0
   -3.7796   -2.7371   -0.3153 C   0  0  0  0  0  0  0  0  0  0  0  0
   -3.3803   -1.0343   -2.1426 C   0  0  0  0  0  0  0  0  0  0  0  0
   -0.3333   -1.3628    0.4410 H   0  0  0  0  0  0  0  0  0  0  0  0
   -0.1423   -0.0938   -0.7661 H   0  0  0  0  0  0  0  0  0  0  0  0
    0.2109    0.3055    2.2500 H   0  0  0  0  0  0  0  0  0  0  0  0
    0.4268    1.5596    1.0583 H   0  0  0  0  0  0  0  0  0  0  0  0
    1.2031   -2.5414   -1.0724 H   0  0  0  0  0  0  0  0  0  0  0  0
    2.9173   -2.2128   -1.1290 H   0  0  0  0  0  0  0  0  0  0  0  0
    1.8135   -1.2042   -2.0573 H   0  0  0  0  0  0  0  0  0  0  0  0
   -2.1287    0.2528    2.0571 H   0  0  0  0  0  0  0  0  0  0  0  0
    2.5922   -0.5004    2.1109 H   0  0  0  0  0  0  0  0  0  0  0  0
   -4.1037    1.7371    1.7901 H   0  0  0  0  0  0  0  0  0  0  0  0
   -4.0481    3.0156    0.5971 H   0  0  0  0  0  0  0  0  0  0  0  0
   -4.3852    1.3646   -1.2432 H   0  0  0  0  0  0  0  0  0  0  0  0
   -5.6784    1.3092   -0.0700 H   0  0  0  0  0  0  0  0  0  0  0  0
   -0.6025    2.3605   -0.6319 H   0  0  0  0  0  0  0  0  0  0  0  0
   -1.6559    3.6673   -0.0785 H   0  0  0  0  0  0  0  0  0  0  0  0
   -2.1750    2.5697   -1.3698 H   0  0  0  0  0  0  0  0  0  0  0  0
   -4.7393   -0.6922    1.0583 H   0  0  0  0  0  0  0  0  0  0  0  0
    2.1566   -3.3679    1.1541 H   0  0  0  0  0  0  0  0  0  0  0  0
    2.8508   -2.7619    2.7657 H   0  0  0  0  0  0  0  0  0  0  0  0
    4.1279    2.3514    0.0817 H   0  0  0  0  0  0  0  0  0  0  0  0
    3.9195    2.0120   -1.6580 H   0  0  0  0  0  0  0  0  0  0  0  0
    6.3672    1.2467    0.0218 H   0  0  0  0  0  0  0  0  0  0  0  0
    6.1619    0.9125   -1.7038 H   0  0  0  0  0  0  0  0  0  0  0  0
    6.2793    2.5887   -1.1350 H   0  0  0  0  0  0  0  0  0  0  0  0
   -2.7318   -3.0550   -0.3245 H   0  0  0  0  0  0  0  0  0  0  0  0
   -4.1650   -2.8948    0.6976 H   0  0  0  0  0  0  0  0  0  0  0  0
   -4.3466   -3.3858   -0.9909 H   0  0  0  0  0  0  0  0  0  0  0  0
   -3.3645    0.0220   -2.4153 H   0  0  0  0  0  0  0  0  0  0  0  0
   -3.9988   -1.5594   -2.8778 H   0  0  0  0  0  0  0  0  0  0  0  0
   -2.3516   -1.3993   -2.2372 H   0  0  0  0  0  0  0  0  0  0  0  0
  1  3  1  0  0  0  0
  1 13  1  0  0  0  0
  2 13  2  0  0  0  0
  3  4  1  0  0  0  0
  3  6  1  0  0  0  0
  3  9  1  0  0  0  0
  4  5  1  0  0  0  0
  4 21  1  0  0  0  0
  4 22  1  0  0  0  0
  5  7  1  0  0  0  0
  5 23  1  0  0  0  0
  5 24  1  0  0  0  0
  6 25  1  0  0  0  0
  6 26  1  0  0  0  0
  6 27  1  0  0  0  0
  7  8  2  3  0  0  0
  7 28  1  0  0  0  0
  8 10  1  0  0  0  0
  8 12  1  0  0  0  0
  9 14  2  0  0  0  0
  9 29  1  0  0  0  0
 10 11  1  0  0  0  0
 10 30  1  0  0  0  0
 10 31  1  0  0  0  0
 11 15  1  0  0  0  0
 11 32  1  0  0  0  0
 11 33  1  0  0  0  0
 12 34  1  0  0  0  0
 12 35  1  0  0  0  0
 12 36  1  0  0  0  0
 13 16  1  0  0  0  0
 14 38  1  0  0  0  0
 14 39  1  0  0  0  0
 15 17  2  0  0  0  0
 15 37  1  0  0  0  0
 16 18  1  0  0  0  0
 16 40  1  0  0  0  0
 16 41  1  0  0  0  0
 17 19  1  0  0  0  0
 17 20  1  0  0  0  0
 18 42  1  0  0  0  0
 18 43  1  0  0  0  0
 18 44  1  0  0  0  0
 19 45  1  0  0  0  0
 19 46  1  0  0  0  0
 19 47  1  0  0  0  0
 20 48  1  0  0  0  0
 20 49  1  0  0  0  0
 20 50  1  0  0  0  0
M  END
> <PUBCHEM_COMPOUND_CID>
81573

> <PUBCHEM_CONFORMER_RMSD>
1

> <PUBCHEM_CONFORMER_DIVERSEORDER>
1
29
82
93
140
113
141
14
47
66
11
96
84
155
38
123
2
116
132
119
9
122
157
23
104
71
102
149
130
58
89
134
65
19
142
99
8
76
158
3
152
36
124
138
61
22
106
31
25
109
63
154
78
20
70
95
21
126
105
5
98
159
27
143
125
77
32
101
145
115
67
136
43
137
15
4
68
111
40
86
54
135
42
64
34
75
144
146
108
150
83
139
48
10
59
69
103
110
13
24
53
107
156
37
118
114
39
81
16
151
92
80
121
18
129
35
88
26
17
133
120
55
97
94
6
44
62
60
87
73
46
74
51
153
52
148
100
41
56
50
90
49
7
112
57
85
72
128
12
33
117
45
147
79
131
30
28
91
127

> <PUBCHEM_MMFF94_PARTIAL_CHARGES>
22
1 -0.43
10 0.14
11 0.14
12 0.14
13 0.66
14 -0.3
15 -0.29
16 0.06
17 -0.28
19 0.14
2 -0.57
20 0.14
28 0.15
29 0.15
3 0.42
37 0.15
38 0.15
39 0.15
5 0.14
7 -0.29
8 -0.28
9 -0.29

> <PUBCHEM_EFFECTIVE_ROTOR_COUNT>
10

> <PUBCHEM_PHARMACOPHORE_FEATURES>
6
1 12 hydrophobe
1 14 hydrophobe
1 18 hydrophobe
1 2 acceptor
3 17 19 20 hydrophobe
4 8 10 11 15 hydrophobe

> <PUBCHEM_HEAVY_ATOM_COUNT>
20

> <PUBCHEM_ATOM_DEF_STEREO_COUNT>
0

> <PUBCHEM_ATOM_UDEF_STEREO_COUNT>
1

> <PUBCHEM_BOND_DEF_STEREO_COUNT>
0

> <PUBCHEM_BOND_UDEF_STEREO_COUNT>
1

> <PUBCHEM_ISOTOPIC_ATOM_COUNT>
0

> <PUBCHEM_COMPONENT_COUNT>
1

> <PUBCHEM_CACTVS_TAUTO_COUNT>
1

> <PUBCHEM_CONFORMER_ID>
00013EA500000001

> <PUBCHEM_MMFF94_ENERGY>
30.1184

> <PUBCHEM_FEATURE_SELFOVERLAP>
30.456

> <PUBCHEM_SHAPE_FINGERPRINT>
10042902 136 16843312652500073135
10090160 65 17967256416324488552
10366900 7 16056877979840595289
10616163 171 18273496762948194847
10759866 29 18411134701743497234
11014199 57 17054125383890054063
11759241 127 18334300850716761660
12553582 1 17988067998390519423
12616971 3 18261674770691454616
12670545 47 16916770873943412107
12670546 177 18343306941975311412
12788726 201 18201436927116589377
13167823 11 18336547101437721667
13631057 29 18269274724043847911
14251757 5 17917149532131121191
14251764 3 16009026232708692941
14251764 30 14692579831312134164
14617045 38 17917999382306203751
15415430 112 18273778250862288377
15537594 2 18413112775265476379
17349148 13 17240201027936474704
18186145 218 15575286359072423825
20775530 9 17912068749915225727
20871999 31 18131634491097679841
21033648 29 15574712469673716932
21054139 6 18335699498627422778
21709351 56 18334859368806985932
23402539 116 18334295374796748740
23559900 14 17772189717425193774
238078 22 18131636698974867785
268830 7 17676767552815489177
2838139 119 18113624516927441076
329604 57 18267024045121688087
4325135 7 18341618130680147452
474 4 17967823781546481772
574716 61 18187359909341321919
603831 33 18409163303333088283
67856867 119 18261385612329565912
7495541 125 16988560221704315794

> <PUBCHEM_SHAPE_MULTIPOLES>
399.85
11.46
2.88
1.52
5.34
0.34
-0.01
-2.22
3.62
-1.01
-0.17
-0.04
0.58
-2.41

> <PUBCHEM_SHAPE_SELFOVERLAP>
767.983

> <PUBCHEM_SHAPE_VOLUME>
243.8

> <PUBCHEM_COORDINATE_TYPE>
2
5
10

$$$$
