81591
  -OEChem-11232109063D

 36 36  0     0  0  0  0  0  0999 V2000
   -0.7185   -0.2427    0.0362 O   0  0  0  0  0  0  0  0  0  0  0  0
   -1.8351   -2.2324    0.3420 O   0  0  0  0  0  0  0  0  0  0  0  0
    4.1423    0.5001   -0.0461 C   0  0  0  0  0  0  0  0  0  0  0  0
    3.0275   -0.5412    0.0743 C   0  0  0  0  0  0  0  0  0  0  0  0
    5.5484   -0.1020    0.0297 C   0  0  0  0  0  0  0  0  0  0  0  0
    1.6490    0.1097   -0.0311 C   0  0  0  0  0  0  0  0  0  0  0  0
    6.6620    0.9279   -0.1643 C   0  0  0  0  0  0  0  0  0  0  0  0
    0.5317   -0.9115    0.1292 C   0  0  0  0  0  0  0  0  0  0  0  0
    8.0336    0.2699   -0.1522 C   0  0  0  0  0  0  0  0  0  0  0  0
   -1.8266   -1.0248    0.1605 C   0  0  0  0  0  0  0  0  0  0  0  0
   -3.0624   -0.2100    0.0441 C   0  0  0  0  0  0  0  0  0  0  0  0
   -4.2002   -0.7947   -0.4734 C   0  0  0  0  0  0  0  0  0  0  0  0
   -3.0349    1.1063    0.4574 C   0  0  0  0  0  0  0  0  0  0  0  0
   -5.3613   -0.0294   -0.5826 C   0  0  0  0  0  0  0  0  0  0  0  0
   -4.1962    1.8713    0.3482 C   0  0  0  0  0  0  0  0  0  0  0  0
   -5.3593    1.3034   -0.1718 C   0  0  0  0  0  0  0  0  0  0  0  0
    4.0336    1.0326   -0.9992 H   0  0  0  0  0  0  0  0  0  0  0  0
    4.0303    1.2480    0.7486 H   0  0  0  0  0  0  0  0  0  0  0  0
    3.1405   -1.2940   -0.7149 H   0  0  0  0  0  0  0  0  0  0  0  0
    3.1191   -1.0624    1.0348 H   0  0  0  0  0  0  0  0  0  0  0  0
    5.6757   -0.5981    0.9998 H   0  0  0  0  0  0  0  0  0  0  0  0
    5.6420   -0.8805   -0.7378 H   0  0  0  0  0  0  0  0  0  0  0  0
    1.5416    0.6189   -0.9970 H   0  0  0  0  0  0  0  0  0  0  0  0
    1.5380    0.8894    0.7328 H   0  0  0  0  0  0  0  0  0  0  0  0
    6.6121    1.6817    0.6296 H   0  0  0  0  0  0  0  0  0  0  0  0
    6.5232    1.4502   -1.1179 H   0  0  0  0  0  0  0  0  0  0  0  0
    0.6004   -1.6694   -0.6600 H   0  0  0  0  0  0  0  0  0  0  0  0
    0.6099   -1.4031    1.1061 H   0  0  0  0  0  0  0  0  0  0  0  0
    8.2155   -0.2398    0.7993 H   0  0  0  0  0  0  0  0  0  0  0  0
    8.8159    1.0229   -0.2894 H   0  0  0  0  0  0  0  0  0  0  0  0
    8.1240   -0.4646   -0.9589 H   0  0  0  0  0  0  0  0  0  0  0  0
   -4.2133   -1.8304   -0.7996 H   0  0  0  0  0  0  0  0  0  0  0  0
   -2.1466    1.5679    0.8779 H   0  0  0  0  0  0  0  0  0  0  0  0
   -6.2669   -0.4713   -0.9880 H   0  0  0  0  0  0  0  0  0  0  0  0
   -4.1960    2.9084    0.6708 H   0  0  0  0  0  0  0  0  0  0  0  0
   -6.2635    1.8990   -0.2561 H   0  0  0  0  0  0  0  0  0  0  0  0
  1  8  1  0  0  0  0
  1 10  1  0  0  0  0
  2 10  2  0  0  0  0
  3  4  1  0  0  0  0
  3  5  1  0  0  0  0
  3 17  1  0  0  0  0
  3 18  1  0  0  0  0
  4  6  1  0  0  0  0
  4 19  1  0  0  0  0
  4 20  1  0  0  0  0
  5  7  1  0  0  0  0
  5 21  1  0  0  0  0
  5 22  1  0  0  0  0
  6  8  1  0  0  0  0
  6 23  1  0  0  0  0
  6 24  1  0  0  0  0
  7  9  1  0  0  0  0
  7 25  1  0  0  0  0
  7 26  1  0  0  0  0
  8 27  1  0  0  0  0
  8 28  1  0  0  0  0
  9 29  1  0  0  0  0
  9 30  1  0  0  0  0
  9 31  1  0  0  0  0
 10 11  1  0  0  0  0
 11 12  2  0  0  0  0
 11 13  1  0  0  0  0
 12 14  1  0  0  0  0
 12 32  1  0  0  0  0
 13 15  2  0  0  0  0
 13 33  1  0  0  0  0
 14 16  2  0  0  0  0
 14 34  1  0  0  0  0
 15 16  1  0  0  0  0
 15 35  1  0  0  0  0
 16 36  1  0  0  0  0
M  END
> <PUBCHEM_COMPOUND_CID>
81591

> <PUBCHEM_CONFORMER_RMSD>
0.8

> <PUBCHEM_CONFORMER_DIVERSEORDER>
1
141
2
208
114
217
43
210
85
146
71
191
26
8
171
255
205
44
159
257
204
161
90
84
185
4
236
118
99
256
145
113
14
98
100
177
73
151
219
157
3
34
104
251
203
102
156
119
10
172
188
6
13
244
214
33
11
97
115
216
215
42
117
95
15
194
186
148
221
47
32
39
180
183
50
258
107
70
165
60
86
89
173
25
241
37
168
91
67
201
170
233
212
166
87
101
132
239
96
134
120
140
112
24
155
88
222
178
9
29
7
62
20
111
81
232
36
199
94
106
149
200
135
234
231
83
154
175
18
139
190
116
124
27
228
78
41
223
162
137
246
109
253
143
158
49
126
240
235
16
127
176
160
77
169
174
152
110
198
21
249
229
179
192
68
220
207
164
129
227
93
254
56
259
17
46
5
182
150
225
252
247
195
121
35
125
23
187
189
31
242
237
66
130
105
128
54
108
142
213
184
75
181
45
230
12
65
74
51
209
243
79
82
19
193
206
48
38
163
133
245
122
40
103
55
218
250
30
248
224
72
64
197
22
138
226
76
58
238
147
57
69
53
61
63
144
211
28
92
59
196
131
52
80
202
167
153
123
136

> <PUBCHEM_MMFF94_PARTIAL_CHARGES>
15
1 -0.43
10 0.63
11 0.09
12 -0.15
13 -0.15
14 -0.15
15 -0.15
16 -0.15
2 -0.57
32 0.15
33 0.15
34 0.15
35 0.15
36 0.15
8 0.28

> <PUBCHEM_EFFECTIVE_ROTOR_COUNT>
8

> <PUBCHEM_PHARMACOPHORE_FEATURES>
4
1 2 acceptor
1 9 hydrophobe
5 3 4 5 6 7 hydrophobe
6 11 12 13 14 15 16 rings

> <PUBCHEM_HEAVY_ATOM_COUNT>
16

> <PUBCHEM_ATOM_DEF_STEREO_COUNT>
0

> <PUBCHEM_ATOM_UDEF_STEREO_COUNT>
0

> <PUBCHEM_BOND_DEF_STEREO_COUNT>
0

> <PUBCHEM_BOND_UDEF_STEREO_COUNT>
0

> <PUBCHEM_ISOTOPIC_ATOM_COUNT>
0

> <PUBCHEM_COMPONENT_COUNT>
1

> <PUBCHEM_CACTVS_TAUTO_COUNT>
1

> <PUBCHEM_CONFORMER_ID>
00013EB700000001

> <PUBCHEM_MMFF94_ENERGY>
24.4324

> <PUBCHEM_FEATURE_SELFOVERLAP>
20.297

> <PUBCHEM_SHAPE_FINGERPRINT>
10087517 78 18408884005831658196
10411042 1 17978791535205413863
106641 1 17385732400512027265
10730089 173 18342739606691508320
10968037 39 18272088305315956461
11089746 13 18410853283170774868
11315181 36 18114184171880615080
117890 112 18409449189821401844
12091667 2 18413108380960206658
13288520 33 9655574110968363811
13533116 47 17313373493291147976
13964095 4 18413110559352352324
1420 363 10881399829561722328
14251764 18 18259700104075287546
14251764 46 18260829307075542895
14729087 3 18411696595878567440
15048467 5 18333731317084532980
15183329 4 18341614789902044272
15348495 7 14057014857543952420
15501527 16 18410577270891181489
15716309 27 8502655905160261144
167882 2 17986679177228238822
17780758 139 11746935378467354287
17834072 8 18060701697871782672
17834076 25 18409729569460048300
18643901 69 16271917269088683645
19489759 90 18273496779653011344
200 152 13542465358389658579
20281389 69 18186235122248006756
20300324 65 18131628976966203181
20621476 66 18411142398414562496
20621476 8 18187364299567979926
20645477 56 18410293614229372411
20645477 70 16988291867768682174
21150785 3 15841548587870550816
21315763 28 18411698812012743598
22224240 67 14707209932920421872
23035841 295 9727633908240242092
23198884 109 18412826880371726994
23402539 116 18343014502221056695
23559900 14 18130499820772777560
300161 21 18335698343455332498
351380 3 10952048944334670932
3545911 37 18412545418301108194
4073 2 18041002895210257698
42788 4 18413108377392914798
441001 317 18341895190519914793
59755656 520 18333725831894922542
6328613 192 18260835947027099644
7062679 6 18334582330378738516

> <PUBCHEM_SHAPE_MULTIPOLES>
317.53
19.17
1.52
0.68
33.94
0.06
0.01
-6.7
2.23
-1.92
-0.17
-0.22
-0.01
-0.31

> <PUBCHEM_SHAPE_SELFOVERLAP>
629.661

> <PUBCHEM_SHAPE_VOLUME>
188.9

> <PUBCHEM_COORDINATE_TYPE>
2
5
10

$$$$
