8159
  -OEChem-11232108543D

 29 28  0     0  0  0  0  0  0999 V2000
   -2.6860    0.5044   -0.0110 O   0  0  0  0  0  0  0  0  0  0  0  0
   -4.1075   -1.3167    0.0050 O   0  0  0  0  0  0  0  0  0  0  0  0
    2.2315    0.4705    0.0450 C   0  0  0  0  0  0  0  0  0  0  0  0
    0.9647   -0.3872    0.0105 C   0  0  0  0  0  0  0  0  0  0  0  0
    3.5234   -0.3517    0.0451 C   0  0  0  0  0  0  0  0  0  0  0  0
   -0.2916    0.4824   -0.0120 C   0  0  0  0  0  0  0  0  0  0  0  0
    4.7894    0.5052    0.0052 C   0  0  0  0  0  0  0  0  0  0  0  0
   -1.5588   -0.3607   -0.0043 C   0  0  0  0  0  0  0  0  0  0  0  0
    6.0404   -0.3575   -0.0658 C   0  0  0  0  0  0  0  0  0  0  0  0
   -3.9084   -0.1095   -0.0052 C   0  0  0  0  0  0  0  0  0  0  0  0
   -4.9971    0.9206   -0.0127 C   0  0  0  0  0  0  0  0  0  0  0  0
    2.2147    1.1102    0.9361 H   0  0  0  0  0  0  0  0  0  0  0  0
    2.2349    1.1395   -0.8246 H   0  0  0  0  0  0  0  0  0  0  0  0
    0.9458   -1.0435    0.8889 H   0  0  0  0  0  0  0  0  0  0  0  0
    0.9815   -1.0327   -0.8759 H   0  0  0  0  0  0  0  0  0  0  0  0
    3.5437   -0.9906    0.9367 H   0  0  0  0  0  0  0  0  0  0  0  0
    3.5166   -1.0221   -0.8236 H   0  0  0  0  0  0  0  0  0  0  0  0
   -0.2901    1.1302   -0.8975 H   0  0  0  0  0  0  0  0  0  0  0  0
   -0.3014    1.1573    0.8532 H   0  0  0  0  0  0  0  0  0  0  0  0
    4.7615    1.1690   -0.8665 H   0  0  0  0  0  0  0  0  0  0  0  0
    4.8349    1.1409    0.8969 H   0  0  0  0  0  0  0  0  0  0  0  0
   -1.5866   -0.9881    0.8944 H   0  0  0  0  0  0  0  0  0  0  0  0
   -1.5864   -1.0039   -0.8918 H   0  0  0  0  0  0  0  0  0  0  0  0
    6.1127   -1.0156    0.8060 H   0  0  0  0  0  0  0  0  0  0  0  0
    6.9344    0.2734   -0.0905 H   0  0  0  0  0  0  0  0  0  0  0  0
    6.0383   -0.9789   -0.9670 H   0  0  0  0  0  0  0  0  0  0  0  0
   -4.9229    1.5313   -0.9159 H   0  0  0  0  0  0  0  0  0  0  0  0
   -4.9227    1.5446    0.8815 H   0  0  0  0  0  0  0  0  0  0  0  0
   -5.9698    0.4205   -0.0089 H   0  0  0  0  0  0  0  0  0  0  0  0
  1  8  1  0  0  0  0
  1 10  1  0  0  0  0
  2 10  2  0  0  0  0
  3  4  1  0  0  0  0
  3  5  1  0  0  0  0
  3 12  1  0  0  0  0
  3 13  1  0  0  0  0
  4  6  1  0  0  0  0
  4 14  1  0  0  0  0
  4 15  1  0  0  0  0
  5  7  1  0  0  0  0
  5 16  1  0  0  0  0
  5 17  1  0  0  0  0
  6  8  1  0  0  0  0
  6 18  1  0  0  0  0
  6 19  1  0  0  0  0
  7  9  1  0  0  0  0
  7 20  1  0  0  0  0
  7 21  1  0  0  0  0
  8 22  1  0  0  0  0
  8 23  1  0  0  0  0
  9 24  1  0  0  0  0
  9 25  1  0  0  0  0
  9 26  1  0  0  0  0
 10 11  1  0  0  0  0
 11 27  1  0  0  0  0
 11 28  1  0  0  0  0
 11 29  1  0  0  0  0
M  END
> <PUBCHEM_COMPOUND_CID>
8159

> <PUBCHEM_CONFORMER_RMSD>
0.8

> <PUBCHEM_CONFORMER_DIVERSEORDER>
1
83
2
106
27
89
17
105
64
95
11
97
33
10
66
8
45
3
82
61
29
56
104
58
75
5
68
41
59
86
92
78
13
22
51
19
15
63
107
65
16
100
31
74
49
38
94
87
72
81
36
9
26
96
43
77
32
55
6
42
23
25
57
69
39
40
71
88
99
98
24
73
30
21
85
101
35
76
90
7
84
52
62
60
102
14
47
67
48
37
54
53
93
34
12
20
70
79
103
4
44
50
28
46
91
18
80

> <PUBCHEM_MMFF94_PARTIAL_CHARGES>
5
1 -0.43
10 0.66
11 0.06
2 -0.57
8 0.28

> <PUBCHEM_EFFECTIVE_ROTOR_COUNT>
7

> <PUBCHEM_PHARMACOPHORE_FEATURES>
3
1 2 acceptor
1 9 hydrophobe
5 3 4 5 6 7 hydrophobe

> <PUBCHEM_HEAVY_ATOM_COUNT>
11

> <PUBCHEM_ATOM_DEF_STEREO_COUNT>
0

> <PUBCHEM_ATOM_UDEF_STEREO_COUNT>
0

> <PUBCHEM_BOND_DEF_STEREO_COUNT>
0

> <PUBCHEM_BOND_UDEF_STEREO_COUNT>
0

> <PUBCHEM_ISOTOPIC_ATOM_COUNT>
0

> <PUBCHEM_COMPONENT_COUNT>
1

> <PUBCHEM_CACTVS_TAUTO_COUNT>
1

> <PUBCHEM_CONFORMER_ID>
00001FDF00000001

> <PUBCHEM_MMFF94_ENERGY>
1.4432

> <PUBCHEM_FEATURE_SELFOVERLAP>
15.223

> <PUBCHEM_SHAPE_FINGERPRINT>
14123238 8 16950281810704097286
14251718 22 18335702771360684914
15242439 84 18130784559961465161
15501527 16 18338518535125701905
17834072 33 18338237167179808204
17834076 25 17530685402787788801
187816 3 15791732996801504104
20645477 70 17631739253671746678
20719005 15 18411136944243387746
20767249 13 12607403291139158980
20828058 44 18411701006234837511
22485316 2 18410291402152533251
23402539 116 18411695495686172061
42788 4 18410855464665858628
57483677 66 18410571778097858930
8209 1 18411418406446031348

> <PUBCHEM_SHAPE_MULTIPOLES>
214.64
13.77
0.94
0.6
5.71
0.08
0
-0.14
0.18
-0.67
0
0.06
-0.01
0.02

> <PUBCHEM_SHAPE_SELFOVERLAP>
386.315

> <PUBCHEM_SHAPE_VOLUME>
138.6

> <PUBCHEM_COORDINATE_TYPE>
2
5
10

$$$$
