81659
  -OEChem-11232109023D

 18 17  0     0  0  0  0  0  0999 V2000
    1.7248    0.8118    0.0075 S   0  0  0  0  0  0  0  0  0  0  0  0
   -3.4402    0.6618   -0.0033 O   0  0  0  0  0  0  0  0  0  0  0  0
   -2.3482   -1.3293    0.0049 O   0  0  0  0  0  0  0  0  0  0  0  0
    0.1945   -0.1704   -0.0108 C   0  0  0  0  0  0  0  0  0  0  0  0
   -1.0490    0.7078   -0.0032 C   0  0  0  0  0  0  0  0  0  0  0  0
    2.9092   -0.5527   -0.0069 C   0  0  0  0  0  0  0  0  0  0  0  0
    4.3310   -0.0242    0.0050 C   0  0  0  0  0  0  0  0  0  0  0  0
   -2.3222   -0.1049    0.0068 C   0  0  0  0  0  0  0  0  0  0  0  0
    0.1960   -0.8055   -0.9037 H   0  0  0  0  0  0  0  0  0  0  0  0
    0.1918   -0.8275    0.8661 H   0  0  0  0  0  0  0  0  0  0  0  0
   -1.0571    1.3441    0.8894 H   0  0  0  0  0  0  0  0  0  0  0  0
   -1.0673    1.3432   -0.8963 H   0  0  0  0  0  0  0  0  0  0  0  0
    2.7460   -1.1839    0.8723 H   0  0  0  0  0  0  0  0  0  0  0  0
    2.7520   -1.1600   -0.9038 H   0  0  0  0  0  0  0  0  0  0  0  0
    4.5382    0.5938   -0.8753 H   0  0  0  0  0  0  0  0  0  0  0  0
    4.5321    0.5699    0.9030 H   0  0  0  0  0  0  0  0  0  0  0  0
    5.0391   -0.8596   -0.0038 H   0  0  0  0  0  0  0  0  0  0  0  0
   -4.2570    0.1186   -0.0062 H   0  0  0  0  0  0  0  0  0  0  0  0
  1  4  1  0  0  0  0
  1  6  1  0  0  0  0
  2  8  1  0  0  0  0
  2 18  1  0  0  0  0
  3  8  2  0  0  0  0
  4  5  1  0  0  0  0
  4  9  1  0  0  0  0
  4 10  1  0  0  0  0
  5  8  1  0  0  0  0
  5 11  1  0  0  0  0
  5 12  1  0  0  0  0
  6  7  1  0  0  0  0
  6 13  1  0  0  0  0
  6 14  1  0  0  0  0
  7 15  1  0  0  0  0
  7 16  1  0  0  0  0
  7 17  1  0  0  0  0
M  END
> <PUBCHEM_COMPOUND_CID>
81659

> <PUBCHEM_CONFORMER_RMSD>
0.6

> <PUBCHEM_CONFORMER_DIVERSEORDER>
1
27
23
21
16
13
25
11
4
28
7
5
18
17
15
22
10
19
30
6
29
12
24
26
8
9
14
3
20
2

> <PUBCHEM_MMFF94_PARTIAL_CHARGES>
8
1 -0.46
18 0.5
2 -0.65
3 -0.57
4 0.23
5 0.06
6 0.23
8 0.66

> <PUBCHEM_EFFECTIVE_ROTOR_COUNT>
4

> <PUBCHEM_PHARMACOPHORE_FEATURES>
5
1 2 acceptor
1 3 acceptor
1 7 hydrophobe
3 2 3 8 anion
4 1 4 5 6 hydrophobe

> <PUBCHEM_HEAVY_ATOM_COUNT>
8

> <PUBCHEM_ATOM_DEF_STEREO_COUNT>
0

> <PUBCHEM_ATOM_UDEF_STEREO_COUNT>
0

> <PUBCHEM_BOND_DEF_STEREO_COUNT>
0

> <PUBCHEM_BOND_UDEF_STEREO_COUNT>
0

> <PUBCHEM_ISOTOPIC_ATOM_COUNT>
0

> <PUBCHEM_COMPONENT_COUNT>
1

> <PUBCHEM_CACTVS_TAUTO_COUNT>
1

> <PUBCHEM_CONFORMER_ID>
00013EFB00000001

> <PUBCHEM_MMFF94_ENERGY>
6.5285

> <PUBCHEM_FEATURE_SELFOVERLAP>
25.43

> <PUBCHEM_SHAPE_FINGERPRINT>
11062470 55 18272088288362836632
12932764 1 17095509721321118636
14325111 11 18410856594258075236
190213 19 17846500335695407336
20201158 50 18343585122785887646
21293036 1 13840269195242988928
22485316 2 18335697235274479922
23402539 116 18131625665509878261
3248919 1 16558481866958059309
5460574 1 9223230745711323652

> <PUBCHEM_SHAPE_MULTIPOLES>
156.75
7.06
1.02
0.6
3.1
0.09
0
0.49
-0.01
-0.33
0
0.09
-0.02
0.01

> <PUBCHEM_SHAPE_SELFOVERLAP>
269.062

> <PUBCHEM_SHAPE_VOLUME>
105.3

> <PUBCHEM_COORDINATE_TYPE>
2
5
10

$$$$
