81739
  -OEChem-11232108503D

 28 28  0     0  0  0  0  0  0999 V2000
   -2.2748   -0.3559    0.0231 O   0  0  0  0  0  0  0  0  0  0  0  0
   -3.3407    1.4267   -0.9883 O   0  0  0  0  0  0  0  0  0  0  0  0
   -0.5414   -1.7403   -0.9239 C   0  0  0  0  0  0  0  0  0  0  0  0
    0.4252   -1.5252    0.2225 C   0  0  0  0  0  0  0  0  0  0  0  0
    1.4052   -0.4174    0.1333 C   0  0  0  0  0  0  0  0  0  0  0  0
   -1.4847   -0.5586   -1.1413 C   0  0  0  0  0  0  0  0  0  0  0  0
    2.6235   -0.6480   -0.4762 C   0  0  0  0  0  0  0  0  0  0  0  0
    1.0738    0.8152    0.6618 C   0  0  0  0  0  0  0  0  0  0  0  0
    0.4332   -2.3451    1.2876 C   0  0  0  0  0  0  0  0  0  0  0  0
    3.5463    0.3947   -0.5600 C   0  0  0  0  0  0  0  0  0  0  0  0
    1.9966    1.8578    0.5777 C   0  0  0  0  0  0  0  0  0  0  0  0
    3.2329    1.6474   -0.0331 C   0  0  0  0  0  0  0  0  0  0  0  0
   -3.1683    0.6777   -0.0363 C   0  0  0  0  0  0  0  0  0  0  0  0
   -3.9267    0.7709    1.2530 C   0  0  0  0  0  0  0  0  0  0  0  0
    0.0258   -1.9264   -1.8440 H   0  0  0  0  0  0  0  0  0  0  0  0
   -1.1445   -2.6384   -0.7379 H   0  0  0  0  0  0  0  0  0  0  0  0
   -0.9291    0.3541   -1.3850 H   0  0  0  0  0  0  0  0  0  0  0  0
   -2.1468   -0.7891   -1.9848 H   0  0  0  0  0  0  0  0  0  0  0  0
    2.8780   -1.6195   -0.8909 H   0  0  0  0  0  0  0  0  0  0  0  0
    0.1162    0.9915    1.1438 H   0  0  0  0  0  0  0  0  0  0  0  0
   -0.2637   -3.1729    1.3679 H   0  0  0  0  0  0  0  0  0  0  0  0
    1.1336   -2.2089    2.1059 H   0  0  0  0  0  0  0  0  0  0  0  0
    4.5088    0.2311   -1.0358 H   0  0  0  0  0  0  0  0  0  0  0  0
    1.7530    2.8332    0.9887 H   0  0  0  0  0  0  0  0  0  0  0  0
    3.9514    2.4592   -0.0983 H   0  0  0  0  0  0  0  0  0  0  0  0
   -3.2335    0.9571    2.0773 H   0  0  0  0  0  0  0  0  0  0  0  0
   -4.4862   -0.1527    1.4212 H   0  0  0  0  0  0  0  0  0  0  0  0
   -4.6346    1.6028    1.1984 H   0  0  0  0  0  0  0  0  0  0  0  0
  1  6  1  0  0  0  0
  1 13  1  0  0  0  0
  2 13  2  0  0  0  0
  3  4  1  0  0  0  0
  3  6  1  0  0  0  0
  3 15  1  0  0  0  0
  3 16  1  0  0  0  0
  4  5  1  0  0  0  0
  4  9  2  0  0  0  0
  5  7  2  0  0  0  0
  5  8  1  0  0  0  0
  6 17  1  0  0  0  0
  6 18  1  0  0  0  0
  7 10  1  0  0  0  0
  7 19  1  0  0  0  0
  8 11  2  0  0  0  0
  8 20  1  0  0  0  0
  9 21  1  0  0  0  0
  9 22  1  0  0  0  0
 10 12  2  0  0  0  0
 10 23  1  0  0  0  0
 11 12  1  0  0  0  0
 11 24  1  0  0  0  0
 12 25  1  0  0  0  0
 13 14  1  0  0  0  0
 14 26  1  0  0  0  0
 14 27  1  0  0  0  0
 14 28  1  0  0  0  0
M  END
> <PUBCHEM_COMPOUND_CID>
81739

> <PUBCHEM_CONFORMER_RMSD>
0.6

> <PUBCHEM_CONFORMER_DIVERSEORDER>
1
101
125
74
127
27
47
103
136
55
139
45
107
123
134
33
49
138
118
133
54
18
115
17
117
13
128
88
96
83
37
130
28
111
53
58
69
5
26
24
116
23
39
109
122
38
132
135
124
7
89
63
93
57
129
6
100
12
51
16
10
97
32
15
71
94
31
41
119
79
78
60
95
65
81
64
84
21
85
131
112
8
102
36
40
76
50
99
140
126
110
104
3
43
114
108
62
30
25
120
105
56
80
52
106
22
61
9
113
98
4
67
19
29
14
42
91
75
70
46
82
48
87
35
86
11
20
73
2
121
92
137
66
34
77
68
59
90
72
44

> <PUBCHEM_MMFF94_PARTIAL_CHARGES>
21
1 -0.43
10 -0.15
11 -0.15
12 -0.15
13 0.66
14 0.06
19 0.15
2 -0.57
20 0.15
21 0.15
22 0.15
23 0.15
24 0.15
25 0.15
3 0.14
4 -0.17
5 0.03
6 0.28
7 -0.15
8 -0.15
9 -0.3

> <PUBCHEM_EFFECTIVE_ROTOR_COUNT>
5

> <PUBCHEM_PHARMACOPHORE_FEATURES>
3
1 2 acceptor
1 9 hydrophobe
6 5 7 8 10 11 12 rings

> <PUBCHEM_HEAVY_ATOM_COUNT>
14

> <PUBCHEM_ATOM_DEF_STEREO_COUNT>
0

> <PUBCHEM_ATOM_UDEF_STEREO_COUNT>
0

> <PUBCHEM_BOND_DEF_STEREO_COUNT>
0

> <PUBCHEM_BOND_UDEF_STEREO_COUNT>
0

> <PUBCHEM_ISOTOPIC_ATOM_COUNT>
0

> <PUBCHEM_COMPONENT_COUNT>
1

> <PUBCHEM_CACTVS_TAUTO_COUNT>
1

> <PUBCHEM_CONFORMER_ID>
00013F4B00000001

> <PUBCHEM_MMFF94_ENERGY>
32.6463

> <PUBCHEM_FEATURE_SELFOVERLAP>
15.223

> <PUBCHEM_SHAPE_FINGERPRINT>
10498660 4 18336252510026820477
10922049 32 18409740576923586555
10980938 120 18339636754907904015
11769659 78 8142097441655438188
12491281 212 18200597024296207742
13294875 104 18268124553360958858
13549 16 16988854843016828286
13618510 140 18413384332835983909
13705890 14 11815604290020615263
13764800 53 17969784283334217171
14386348 128 18410572902973043805
15775835 57 18412827992757824133
16945 1 18202002118726297654
17357990 137 18130494233004708667
18186145 218 18342462542878072444
18511873 20 18273496762768528342
201361 129 18262237694753921467
20653085 51 18200880689637920906
21041028 32 17904194828766915914
21524375 3 18411132575813657695
22094290 62 18342172254644301054
22926399 65 18339924926187184572
231179 274 18336262345206210597
23419403 2 17477263422655355351
25 1 18412550907343113450
2637199 183 18059870436662842005
276578 36 18040434395430823026
298252 57 17917993884073175942
305870 269 18187914084634496034
549884 4 17988351650340532225
63268167 104 18343303660583088360
6442390 28 18188505686320439803
7832392 63 18060135470272732548
81228 2 17391071804369040402

> <PUBCHEM_SHAPE_MULTIPOLES>
276.37
6.33
2.19
1.16
3.34
0.5
0.08
-4.03
-0.15
-0.46
0.42
0.57
0.23
-0.06

> <PUBCHEM_SHAPE_SELFOVERLAP>
562.793

> <PUBCHEM_SHAPE_VOLUME>
160.7

> <PUBCHEM_COORDINATE_TYPE>
2
5
10

$$$$
