81898
  -OEChem-11232108513D

 29 29  0     0  0  0  0  0  0999 V2000
    1.5496   -1.3413    1.0836 O   0  0  0  0  0  0  0  0  0  0  0  0
    0.6576    1.1980   -0.0597 C   0  0  0  0  0  0  0  0  0  0  0  0
    1.8335    0.3555   -0.6357 C   0  0  0  0  0  0  0  0  0  0  0  0
   -0.6669    0.4142   -0.0558 C   0  0  0  0  0  0  0  0  0  0  0  0
    1.0786    1.7395    1.3289 C   0  0  0  0  0  0  0  0  0  0  0  0
    0.4714    2.4374   -0.9714 C   0  0  0  0  0  0  0  0  0  0  0  0
    2.1502   -0.9522    0.0843 C   0  0  0  0  0  0  0  0  0  0  0  0
   -1.3332    0.2699    1.1345 C   0  0  0  0  0  0  0  0  0  0  0  0
   -1.1191   -0.1039   -1.2427 C   0  0  0  0  0  0  0  0  0  0  0  0
   -2.5336   -0.4405    1.1381 C   0  0  0  0  0  0  0  0  0  0  0  0
   -2.3195   -0.8143   -1.2389 C   0  0  0  0  0  0  0  0  0  0  0  0
    3.2581   -1.7797   -0.5167 C   0  0  0  0  0  0  0  0  0  0  0  0
   -3.0268   -0.9827   -0.0486 C   0  0  0  0  0  0  0  0  0  0  0  0
    2.7531    0.9553   -0.6208 H   0  0  0  0  0  0  0  0  0  0  0  0
    1.6431    0.0984   -1.6849 H   0  0  0  0  0  0  0  0  0  0  0  0
    0.3429    2.4486    1.7277 H   0  0  0  0  0  0  0  0  0  0  0  0
    1.2245    0.9487    2.0714 H   0  0  0  0  0  0  0  0  0  0  0  0
    2.0287    2.2840    1.2601 H   0  0  0  0  0  0  0  0  0  0  0  0
    0.2798    2.1660   -2.0154 H   0  0  0  0  0  0  0  0  0  0  0  0
    1.3692    3.0672   -0.9673 H   0  0  0  0  0  0  0  0  0  0  0  0
   -0.3682    3.0567   -0.6330 H   0  0  0  0  0  0  0  0  0  0  0  0
   -0.9959    0.6696    2.0821 H   0  0  0  0  0  0  0  0  0  0  0  0
   -0.5872    0.0139   -2.1803 H   0  0  0  0  0  0  0  0  0  0  0  0
   -3.0849   -0.5720    2.0647 H   0  0  0  0  0  0  0  0  0  0  0  0
   -2.7037   -1.2367   -2.1629 H   0  0  0  0  0  0  0  0  0  0  0  0
    2.9801   -2.0839   -1.5288 H   0  0  0  0  0  0  0  0  0  0  0  0
    3.4214   -2.6746    0.0902 H   0  0  0  0  0  0  0  0  0  0  0  0
    4.1815   -1.1957   -0.5377 H   0  0  0  0  0  0  0  0  0  0  0  0
   -3.9614   -1.5359   -0.0457 H   0  0  0  0  0  0  0  0  0  0  0  0
  1  7  2  0  0  0  0
  2  3  1  0  0  0  0
  2  4  1  0  0  0  0
  2  5  1  0  0  0  0
  2  6  1  0  0  0  0
  3  7  1  0  0  0  0
  3 14  1  0  0  0  0
  3 15  1  0  0  0  0
  4  8  2  0  0  0  0
  4  9  1  0  0  0  0
  5 16  1  0  0  0  0
  5 17  1  0  0  0  0
  5 18  1  0  0  0  0
  6 19  1  0  0  0  0
  6 20  1  0  0  0  0
  6 21  1  0  0  0  0
  7 12  1  0  0  0  0
  8 10  1  0  0  0  0
  8 22  1  0  0  0  0
  9 11  2  0  0  0  0
  9 23  1  0  0  0  0
 10 13  2  0  0  0  0
 10 24  1  0  0  0  0
 11 13  1  0  0  0  0
 11 25  1  0  0  0  0
 12 26  1  0  0  0  0
 12 27  1  0  0  0  0
 12 28  1  0  0  0  0
 13 29  1  0  0  0  0
M  END
> <PUBCHEM_COMPOUND_CID>
81898

> <PUBCHEM_CONFORMER_RMSD>
0.6

> <PUBCHEM_CONFORMER_DIVERSEORDER>
1
15
10
5
16
12
11
9
8
4
14
13
7
17
3
18
2
6

> <PUBCHEM_MMFF94_PARTIAL_CHARGES>
16
1 -0.57
10 -0.15
11 -0.15
12 0.06
13 -0.15
2 0.14
22 0.15
23 0.15
24 0.15
25 0.15
29 0.15
3 0.06
4 -0.14
7 0.45
8 -0.15
9 -0.15

> <PUBCHEM_EFFECTIVE_ROTOR_COUNT>
3

> <PUBCHEM_PHARMACOPHORE_FEATURES>
3
1 1 acceptor
3 2 5 6 hydrophobe
6 4 8 9 10 11 13 rings

> <PUBCHEM_HEAVY_ATOM_COUNT>
13

> <PUBCHEM_ATOM_DEF_STEREO_COUNT>
0

> <PUBCHEM_ATOM_UDEF_STEREO_COUNT>
0

> <PUBCHEM_BOND_DEF_STEREO_COUNT>
0

> <PUBCHEM_BOND_UDEF_STEREO_COUNT>
0

> <PUBCHEM_ISOTOPIC_ATOM_COUNT>
0

> <PUBCHEM_COMPONENT_COUNT>
1

> <PUBCHEM_CACTVS_TAUTO_COUNT>
3

> <PUBCHEM_CONFORMER_ID>
00013FEA00000001

> <PUBCHEM_MMFF94_ENERGY>
40.9178

> <PUBCHEM_FEATURE_SELFOVERLAP>
15.223

> <PUBCHEM_SHAPE_FINGERPRINT>
10857977 72 14979683264175056575
12202030 40 17895481452419492243
12326174 3 17897430916447491488
12423570 1 13772940437359922357
12897270 3 16153717517627555702
12932764 1 17987246706048566649
13024252 1 16735258997114178664
13299463 15 16660939785167910330
13898156 1 17631743792961301077
15906896 17 17685214967370484157
16945 1 18192161596646912364
19837323 101 11747805057462379452
20201158 50 17676485046909347282
20361792 2 18410854334952446470
20645477 70 18264201594879458319
20653085 51 12108077625957350370
20653091 64 18200597028433049416
20711985 344 17972586698081856404
22445834 79 17988647440522355095
22802520 49 16370722600031308511
23552423 10 18055635268249310341
2748010 2 18263063488068528772
81228 2 17974840679860416224

> <PUBCHEM_SHAPE_MULTIPOLES>
261.66
4.27
2.02
1.38
0.27
0.71
-0.07
-2.95
0.03
-1.46
0.19
0.38
0.2
-0.11

> <PUBCHEM_SHAPE_SELFOVERLAP>
534.599

> <PUBCHEM_SHAPE_VOLUME>
152.3

> <PUBCHEM_COORDINATE_TYPE>
2
5
10

$$$$
