81894
  -OEChem-11232109063D

 33 33  0     0  0  0  0  0  0999 V2000
    2.0108    0.1153    0.0090 O   0  0  0  0  0  0  0  0  0  0  0  0
    3.5782   -1.5776   -0.0073 O   0  0  0  0  0  0  0  0  0  0  0  0
   -0.3795   -0.1324    0.0288 C   0  0  0  0  0  0  0  0  0  0  0  0
   -1.5490   -1.1150    0.0524 C   0  0  0  0  0  0  0  0  0  0  0  0
    0.9596   -0.8561    0.0161 C   0  0  0  0  0  0  0  0  0  0  0  0
   -2.8767   -0.4024    0.0198 C   0  0  0  0  0  0  0  0  0  0  0  0
    4.2640    0.7559   -0.0078 C   0  0  0  0  0  0  0  0  0  0  0  0
    5.7105    0.2680    0.0052 C   0  0  0  0  0  0  0  0  0  0  0  0
   -3.4861   -0.0410    1.2123 C   0  0  0  0  0  0  0  0  0  0  0  0
   -3.4687   -0.1191   -1.2023 C   0  0  0  0  0  0  0  0  0  0  0  0
    3.2795   -0.3913   -0.0027 C   0  0  0  0  0  0  0  0  0  0  0  0
    6.6908    1.4289   -0.0329 C   0  0  0  0  0  0  0  0  0  0  0  0
   -4.7151    0.6182    1.1821 C   0  0  0  0  0  0  0  0  0  0  0  0
   -4.6975    0.5401   -1.2325 C   0  0  0  0  0  0  0  0  0  0  0  0
   -5.3207    0.9087   -0.0402 C   0  0  0  0  0  0  0  0  0  0  0  0
   -0.4226    0.5382    0.8969 H   0  0  0  0  0  0  0  0  0  0  0  0
   -0.4429    0.5231   -0.8496 H   0  0  0  0  0  0  0  0  0  0  0  0
   -1.4823   -1.8019   -0.8012 H   0  0  0  0  0  0  0  0  0  0  0  0
   -1.4924   -1.7475    0.9478 H   0  0  0  0  0  0  0  0  0  0  0  0
    1.0561   -1.4854    0.9086 H   0  0  0  0  0  0  0  0  0  0  0  0
    1.0408   -1.4830   -0.8796 H   0  0  0  0  0  0  0  0  0  0  0  0
    4.0832    1.3549   -0.9074 H   0  0  0  0  0  0  0  0  0  0  0  0
    4.0752    1.3741    0.8771 H   0  0  0  0  0  0  0  0  0  0  0  0
    5.8940   -0.3333    0.9038 H   0  0  0  0  0  0  0  0  0  0  0  0
    5.8930   -0.3864   -0.8557 H   0  0  0  0  0  0  0  0  0  0  0  0
   -3.0216   -0.2612    2.1692 H   0  0  0  0  0  0  0  0  0  0  0  0
   -2.9905   -0.4003   -2.1363 H   0  0  0  0  0  0  0  0  0  0  0  0
    7.7200    1.0566   -0.0218 H   0  0  0  0  0  0  0  0  0  0  0  0
    6.5558    2.0269   -0.9399 H   0  0  0  0  0  0  0  0  0  0  0  0
    6.5569    2.0839    0.8340 H   0  0  0  0  0  0  0  0  0  0  0  0
   -5.2001    0.9058    2.1103 H   0  0  0  0  0  0  0  0  0  0  0  0
   -5.1689    0.7670   -2.1843 H   0  0  0  0  0  0  0  0  0  0  0  0
   -6.2774    1.4223   -0.0638 H   0  0  0  0  0  0  0  0  0  0  0  0
  1  5  1  0  0  0  0
  1 11  1  0  0  0  0
  2 11  2  0  0  0  0
  3  4  1  0  0  0  0
  3  5  1  0  0  0  0
  3 16  1  0  0  0  0
  3 17  1  0  0  0  0
  4  6  1  0  0  0  0
  4 18  1  0  0  0  0
  4 19  1  0  0  0  0
  5 20  1  0  0  0  0
  5 21  1  0  0  0  0
  6  9  2  0  0  0  0
  6 10  1  0  0  0  0
  7  8  1  0  0  0  0
  7 11  1  0  0  0  0
  7 22  1  0  0  0  0
  7 23  1  0  0  0  0
  8 12  1  0  0  0  0
  8 24  1  0  0  0  0
  8 25  1  0  0  0  0
  9 13  1  0  0  0  0
  9 26  1  0  0  0  0
 10 14  2  0  0  0  0
 10 27  1  0  0  0  0
 12 28  1  0  0  0  0
 12 29  1  0  0  0  0
 12 30  1  0  0  0  0
 13 15  2  0  0  0  0
 13 31  1  0  0  0  0
 14 15  1  0  0  0  0
 14 32  1  0  0  0  0
 15 33  1  0  0  0  0
M  END
> <PUBCHEM_COMPOUND_CID>
81894

> <PUBCHEM_CONFORMER_RMSD>
0.8

> <PUBCHEM_CONFORMER_DIVERSEORDER>
1
152
68
142
98
130
5
52
82
27
118
83
127
99
106
143
139
86
156
47
126
49
96
155
34
105
153
158
144
81
58
120
63
148
89
141
94
125
92
136
74
59
50
135
154
108
37
2
159
17
53
122
56
18
91
129
62
131
46
44
32
66
30
87
124
48
45
22
78
112
40
12
71
140
107
43
95
51
31
88
26
121
97
41
38
134
65
11
39
93
128
149
13
28
73
111
33
19
90
101
23
21
3
138
54
104
79
147
117
133
67
146
114
85
15
75
25
55
8
103
6
61
157
77
36
84
35
115
109
70
145
10
132
123
7
64
4
9
113
116
20
69
100
137
150
110
24
102
14
151
29
76
16
72
80
60
57
119
42

> <PUBCHEM_MMFF94_PARTIAL_CHARGES>
17
1 -0.43
10 -0.15
11 0.66
13 -0.15
14 -0.15
15 -0.15
2 -0.57
26 0.15
27 0.15
31 0.15
32 0.15
33 0.15
4 0.14
5 0.28
6 -0.14
7 0.06
9 -0.15

> <PUBCHEM_EFFECTIVE_ROTOR_COUNT>
7

> <PUBCHEM_PHARMACOPHORE_FEATURES>
3
1 12 hydrophobe
1 2 acceptor
6 6 9 10 13 14 15 rings

> <PUBCHEM_HEAVY_ATOM_COUNT>
15

> <PUBCHEM_ATOM_DEF_STEREO_COUNT>
0

> <PUBCHEM_ATOM_UDEF_STEREO_COUNT>
0

> <PUBCHEM_BOND_DEF_STEREO_COUNT>
0

> <PUBCHEM_BOND_UDEF_STEREO_COUNT>
0

> <PUBCHEM_ISOTOPIC_ATOM_COUNT>
0

> <PUBCHEM_COMPONENT_COUNT>
1

> <PUBCHEM_CACTVS_TAUTO_COUNT>
1

> <PUBCHEM_CONFORMER_ID>
00013FE600000001

> <PUBCHEM_MMFF94_ENERGY>
20.4841

> <PUBCHEM_FEATURE_SELFOVERLAP>
15.223

> <PUBCHEM_SHAPE_FINGERPRINT>
10014705 185 18335416893884422271
10912923 1 17989202620758826603
11089746 13 17775564265140535616
11315181 36 12823296814263293531
117890 112 18409166606426754156
12091667 2 17458060490941358482
12507557 5 17748830730469059877
12596602 18 14707208833736133924
13288520 33 13326852245417379977
13403585 85 16660359285751394772
13631057 29 18267016349010473943
13668630 136 10375869679792977421
13675066 3 17458349628097702575
13862211 1 9511472108880261884
1420 363 10879992471457137580
14251718 22 14979955887113367852
14350574 20 10807935972773013658
14528608 73 17203322338757618736
15048467 5 18412826897815554616
15242439 84 13686296872312508962
15348495 7 16733271256733757072
15501527 16 18259704523211370214
15716309 27 11602818004063363668
17834072 33 16486970713340968320
17834076 25 18273496779827032626
17870717 6 14333410056211182205
19489759 90 15339120130449182699
200 152 9439403519140383311
20281389 69 18187361034754836660
20325693 3 15697998531644074831
20645477 56 18040431105179867215
20645477 70 18340205181319778406
21150785 3 17775279499707069501
220451 1 15913332381357974375
23402539 116 16988562398614651960
23402655 69 18202844370556088662
23466295 7 11310612915327780845
23559900 14 13614227196458036298
2767999 5 18343295981609006408
2916195 48 17894910762992889024
29717793 49 17346606249315096718
300161 21 18343861117505582866
351380 3 7997972362428395504
49783359 22 12107784120624275936
5104073 3 16299224606152250185
542803 24 17775286058122117074
543368 44 18130786789033849529

> <PUBCHEM_SHAPE_MULTIPOLES>
296.95
16.32
1.18
1.01
16.85
0.07
0.01
-7.15
0.2
0.89
0
-1.64
-0.11
-0.04

> <PUBCHEM_SHAPE_SELFOVERLAP>
590.266

> <PUBCHEM_SHAPE_VOLUME>
176.1

> <PUBCHEM_COORDINATE_TYPE>
2
5
10

$$$$
