82397
  -OEChem-11232109063D

 28 28  0     0  0  0  0  0  0999 V2000
   -1.0377    0.7986   -0.5026 O   0  0  0  0  0  0  0  0  0  0  0  0
   -3.3078   -1.9001    0.9999 O   0  0  0  0  0  0  0  0  0  0  0  0
   -2.9164    1.1775    0.7856 O   0  0  0  0  0  0  0  0  0  0  0  0
    1.0716    1.9720   -0.3534 C   0  0  0  0  0  0  0  0  0  0  0  0
    1.8830    0.7129   -0.1666 C   0  0  0  0  0  0  0  0  0  0  0  0
   -0.3438    1.8364    0.1970 C   0  0  0  0  0  0  0  0  0  0  0  0
    2.6275    0.5497    0.9911 C   0  0  0  0  0  0  0  0  0  0  0  0
    1.8695   -0.2575   -1.1561 C   0  0  0  0  0  0  0  0  0  0  0  0
   -2.9397   -0.5222   -0.9292 C   0  0  0  0  0  0  0  0  0  0  0  0
   -2.3222    0.5776   -0.1008 C   0  0  0  0  0  0  0  0  0  0  0  0
    3.3775   -0.6137    1.1637 C   0  0  0  0  0  0  0  0  0  0  0  0
    2.6193   -1.4209   -0.9836 C   0  0  0  0  0  0  0  0  0  0  0  0
   -3.9543   -1.3113   -0.1213 C   0  0  0  0  0  0  0  0  0  0  0  0
    3.3734   -1.5991    0.1764 C   0  0  0  0  0  0  0  0  0  0  0  0
    1.0301    2.2110   -1.4239 H   0  0  0  0  0  0  0  0  0  0  0  0
    1.5791    2.8157    0.1303 H   0  0  0  0  0  0  0  0  0  0  0  0
   -0.8785    2.7831    0.0567 H   0  0  0  0  0  0  0  0  0  0  0  0
   -0.3173    1.5965    1.2669 H   0  0  0  0  0  0  0  0  0  0  0  0
    2.6354    1.3106    1.7663 H   0  0  0  0  0  0  0  0  0  0  0  0
    1.2862   -0.1292   -2.0635 H   0  0  0  0  0  0  0  0  0  0  0  0
   -3.4063   -0.0725   -1.8107 H   0  0  0  0  0  0  0  0  0  0  0  0
   -2.1409   -1.1980   -1.2568 H   0  0  0  0  0  0  0  0  0  0  0  0
    3.9643   -0.7526    2.0669 H   0  0  0  0  0  0  0  0  0  0  0  0
    2.6160   -2.1882   -1.7523 H   0  0  0  0  0  0  0  0  0  0  0  0
   -4.7601   -0.6703    0.2495 H   0  0  0  0  0  0  0  0  0  0  0  0
   -4.4001   -2.1077   -0.7252 H   0  0  0  0  0  0  0  0  0  0  0  0
    3.9572   -2.5050    0.3108 H   0  0  0  0  0  0  0  0  0  0  0  0
   -2.6159   -2.4939    0.6617 H   0  0  0  0  0  0  0  0  0  0  0  0
  1  6  1  0  0  0  0
  1 10  1  0  0  0  0
  2 13  1  0  0  0  0
  2 28  1  0  0  0  0
  3 10  2  0  0  0  0
  4  5  1  0  0  0  0
  4  6  1  0  0  0  0
  4 15  1  0  0  0  0
  4 16  1  0  0  0  0
  5  7  2  0  0  0  0
  5  8  1  0  0  0  0
  6 17  1  0  0  0  0
  6 18  1  0  0  0  0
  7 11  1  0  0  0  0
  7 19  1  0  0  0  0
  8 12  2  0  0  0  0
  8 20  1  0  0  0  0
  9 10  1  0  0  0  0
  9 13  1  0  0  0  0
  9 21  1  0  0  0  0
  9 22  1  0  0  0  0
 11 14  2  0  0  0  0
 11 23  1  0  0  0  0
 12 14  1  0  0  0  0
 12 24  1  0  0  0  0
 13 25  1  0  0  0  0
 13 26  1  0  0  0  0
 14 27  1  0  0  0  0
M  END
> <PUBCHEM_COMPOUND_CID>
82397

> <PUBCHEM_CONFORMER_RMSD>
0.6

> <PUBCHEM_CONFORMER_DIVERSEORDER>
1
62
14
191
120
64
52
92
208
15
17
203
142
160
21
182
288
216
116
20
79
114
258
250
74
77
176
265
290
168
164
188
159
132
98
196
228
39
137
158
186
53
57
109
245
95
156
16
31
167
90
180
118
93
177
26
123
40
197
206
220
106
254
174
28
231
149
183
58
214
271
7
210
240
124
274
8
11
37
88
104
59
211
225
94
130
179
48
25
234
144
55
128
259
5
233
19
209
44
103
82
204
67
54
46
273
255
72
136
113
127
131
263
100
22
181
29
47
189
76
63
145
56
198
230
87
242
80
266
239
10
195
236
232
70
148
193
13
268
78
23
115
272
69
143
247
246
96
36
38
194
34
275
285
175
43
199
41
71
200
205
91
222
281
169
138
2
243
184
18
238
217
85
207
3
237
12
84
83
221
277
65
108
192
97
267
279
73
286
81
111
75
141
89
269
35
30
51
60
162
161
129
278
32
99
201
61
226
178
218
283
125
9
229
251
139
135
256
241
224
152
287
121
289
27
227
219
213
262
45
157
147
122
284
66
42
107
4
280
249
151
119
140
185
252
248
49
68
105
134
163
244
270
212
165
50
102
146
126
166
86
150
133
235
257
33
264
215
170
112
155
282
171
187
24
173
260
154
223
253
261
202
276
153
110
172
6
101
117
190

> <PUBCHEM_MMFF94_PARTIAL_CHARGES>
20
1 -0.43
10 0.66
11 -0.15
12 -0.15
13 0.28
14 -0.15
19 0.15
2 -0.68
20 0.15
23 0.15
24 0.15
27 0.15
28 0.4
3 -0.57
4 0.14
5 -0.14
6 0.28
7 -0.15
8 -0.15
9 0.06

> <PUBCHEM_EFFECTIVE_ROTOR_COUNT>
6

> <PUBCHEM_PHARMACOPHORE_FEATURES>
4
1 2 acceptor
1 2 donor
1 3 acceptor
6 5 7 8 11 12 14 rings

> <PUBCHEM_HEAVY_ATOM_COUNT>
14

> <PUBCHEM_ATOM_DEF_STEREO_COUNT>
0

> <PUBCHEM_ATOM_UDEF_STEREO_COUNT>
0

> <PUBCHEM_BOND_DEF_STEREO_COUNT>
0

> <PUBCHEM_BOND_UDEF_STEREO_COUNT>
0

> <PUBCHEM_ISOTOPIC_ATOM_COUNT>
0

> <PUBCHEM_COMPONENT_COUNT>
1

> <PUBCHEM_CACTVS_TAUTO_COUNT>
1

> <PUBCHEM_CONFORMER_ID>
000141DD00000001

> <PUBCHEM_MMFF94_ENERGY>
23.0151

> <PUBCHEM_FEATURE_SELFOVERLAP>
20.298

> <PUBCHEM_SHAPE_FINGERPRINT>
10618630 7 18411981360119420093
11471102 22 17846208952044496044
11715629 250 8070017861611428093
12346177 29 18339634539169198069
12363563 72 18335421270318901299
12382932 28 17917426484475386128
12400797 245 18271799125373509198
13296908 3 18342174453540917253
13764800 53 11023528255364955645
14251705 54 18410858806098083155
14252887 29 18272369793383193466
15239191 94 18113907065175866435
17357990 137 12607102016653279738
17834072 14 18339342111645905613
1798214 55 9367348141110596159
18186145 218 11530482203212823956
19107657 162 18413107260031732239
20281475 54 18336550430164047892
20361792 2 17822298929058352076
20442098 301 18131070480266322087
20645477 70 18264478658787047343
20767249 462 10735879452181653611
21501925 9 18342167890783526573
21864079 5 10879985878345137611
22646028 28 18335417971799835731
231179 274 10303820899285864502
23402655 69 12179846065654050182
23503958 25 10663821926958414199
23557571 272 16806151280884176797
25 1 7925635556824592204
251288 83 18271795852740311034
449060 23 18335419007008305952
5902787 121 18335136488212097976
81228 2 18126003763061129233
9882013 296 17632286925761428362

> <PUBCHEM_SHAPE_MULTIPOLES>
270.51
7.36
2.08
1.13
4.15
0.13
-0.03
-4.22
-1.29
0.25
-0.09
-0.38
-0.23
0.26

> <PUBCHEM_SHAPE_SELFOVERLAP>
546.048

> <PUBCHEM_SHAPE_VOLUME>
157.3

> <PUBCHEM_COORDINATE_TYPE>
2
5
10

$$$$
