82493
  -OEChem-11232109423D

 35 34  0     0  0  0  0  0  0999 V2000
   -0.2407   -0.5416   -0.7356 O   0  0  0  0  0  0  0  0  0  0  0  0
   -0.1497   -1.8491    1.1667 O   0  0  0  0  0  0  0  0  0  0  0  0
    0.0061    0.6277    0.0483 C   0  0  0  0  0  0  0  0  0  0  0  0
   -1.1546    0.7820    1.0449 C   0  0  0  0  0  0  0  0  0  0  0  0
    1.3706    0.4743    0.7356 C   0  0  0  0  0  0  0  0  0  0  0  0
   -2.5464    1.0207    0.4322 C   0  0  0  0  0  0  0  0  0  0  0  0
    2.5652    0.3288   -0.2314 C   0  0  0  0  0  0  0  0  0  0  0  0
   -2.5841    2.2561   -0.4674 C   0  0  0  0  0  0  0  0  0  0  0  0
   -2.9780   -0.2136   -0.3653 C   0  0  0  0  0  0  0  0  0  0  0  0
    2.7030    1.5286   -1.1696 C   0  0  0  0  0  0  0  0  0  0  0  0
    3.8583    0.1482    0.5687 C   0  0  0  0  0  0  0  0  0  0  0  0
   -0.2927   -1.7147   -0.0409 C   0  0  0  0  0  0  0  0  0  0  0  0
   -0.5570   -2.8474   -0.9860 C   0  0  0  0  0  0  0  0  0  0  0  0
    0.0270    1.4866   -0.6266 H   0  0  0  0  0  0  0  0  0  0  0  0
   -1.2354   -0.0342    1.7665 H   0  0  0  0  0  0  0  0  0  0  0  0
   -0.9256    1.6619    1.6636 H   0  0  0  0  0  0  0  0  0  0  0  0
    1.4080   -0.3399    1.4624 H   0  0  0  0  0  0  0  0  0  0  0  0
    1.5335    1.3808    1.3365 H   0  0  0  0  0  0  0  0  0  0  0  0
   -3.2557    1.1698    1.2559 H   0  0  0  0  0  0  0  0  0  0  0  0
    2.4254   -0.5715   -0.8420 H   0  0  0  0  0  0  0  0  0  0  0  0
   -3.6134    2.4671   -0.7778 H   0  0  0  0  0  0  0  0  0  0  0  0
   -1.9904    2.1262   -1.3777 H   0  0  0  0  0  0  0  0  0  0  0  0
   -2.2104    3.1370    0.0647 H   0  0  0  0  0  0  0  0  0  0  0  0
   -4.0475   -0.1276   -0.5960 H   0  0  0  0  0  0  0  0  0  0  0  0
   -2.4794   -0.3031   -1.3334 H   0  0  0  0  0  0  0  0  0  0  0  0
   -2.8670   -1.1334    0.2152 H   0  0  0  0  0  0  0  0  0  0  0  0
    3.6142    1.4466   -1.7724 H   0  0  0  0  0  0  0  0  0  0  0  0
    1.8634    1.5887   -1.8683 H   0  0  0  0  0  0  0  0  0  0  0  0
    2.7533    2.4685   -0.6098 H   0  0  0  0  0  0  0  0  0  0  0  0
    3.7948   -0.7315    1.2179 H   0  0  0  0  0  0  0  0  0  0  0  0
    4.0623    1.0212    1.1980 H   0  0  0  0  0  0  0  0  0  0  0  0
    4.7135    0.0055   -0.1005 H   0  0  0  0  0  0  0  0  0  0  0  0
    0.2656   -2.9305   -1.7008 H   0  0  0  0  0  0  0  0  0  0  0  0
   -1.5041   -2.6908   -1.5074 H   0  0  0  0  0  0  0  0  0  0  0  0
   -0.6234   -3.7816   -0.4209 H   0  0  0  0  0  0  0  0  0  0  0  0
  1  3  1  0  0  0  0
  1 12  1  0  0  0  0
  2 12  2  0  0  0  0
  3  4  1  0  0  0  0
  3  5  1  0  0  0  0
  3 14  1  0  0  0  0
  4  6  1  0  0  0  0
  4 15  1  0  0  0  0
  4 16  1  0  0  0  0
  5  7  1  0  0  0  0
  5 17  1  0  0  0  0
  5 18  1  0  0  0  0
  6  8  1  0  0  0  0
  6  9  1  0  0  0  0
  6 19  1  0  0  0  0
  7 10  1  0  0  0  0
  7 11  1  0  0  0  0
  7 20  1  0  0  0  0
  8 21  1  0  0  0  0
  8 22  1  0  0  0  0
  8 23  1  0  0  0  0
  9 24  1  0  0  0  0
  9 25  1  0  0  0  0
  9 26  1  0  0  0  0
 10 27  1  0  0  0  0
 10 28  1  0  0  0  0
 10 29  1  0  0  0  0
 11 30  1  0  0  0  0
 11 31  1  0  0  0  0
 11 32  1  0  0  0  0
 12 13  1  0  0  0  0
 13 33  1  0  0  0  0
 13 34  1  0  0  0  0
 13 35  1  0  0  0  0
M  END
> <PUBCHEM_COMPOUND_CID>
82493

> <PUBCHEM_CONFORMER_RMSD>
0.6

> <PUBCHEM_CONFORMER_DIVERSEORDER>
1
2

> <PUBCHEM_MMFF94_PARTIAL_CHARGES>
5
1 -0.43
12 0.66
13 0.06
2 -0.57
3 0.28

> <PUBCHEM_EFFECTIVE_ROTOR_COUNT>
6

> <PUBCHEM_PHARMACOPHORE_FEATURES>
3
1 2 acceptor
3 6 8 9 hydrophobe
3 7 10 11 hydrophobe

> <PUBCHEM_HEAVY_ATOM_COUNT>
13

> <PUBCHEM_ATOM_DEF_STEREO_COUNT>
0

> <PUBCHEM_ATOM_UDEF_STEREO_COUNT>
0

> <PUBCHEM_BOND_DEF_STEREO_COUNT>
0

> <PUBCHEM_BOND_UDEF_STEREO_COUNT>
0

> <PUBCHEM_ISOTOPIC_ATOM_COUNT>
0

> <PUBCHEM_COMPONENT_COUNT>
1

> <PUBCHEM_CACTVS_TAUTO_COUNT>
1

> <PUBCHEM_CONFORMER_ID>
0001423D00000001

> <PUBCHEM_MMFF94_ENERGY>
27.5801

> <PUBCHEM_FEATURE_SELFOVERLAP>
15.223

> <PUBCHEM_SHAPE_FINGERPRINT>
1 1 18196089945587098022
10702982 57 18335415772723819794
12138202 97 18272379706093879390
12500047 106 18343013407321063000
12716758 59 18201431532062535314
13380535 21 18198351650233905177
13380535 76 18336263423633268473
13538477 17 18188770694518488064
14325111 11 18411418380143724496
14817 1 11121369324017484803
14993402 34 18333450966898890580
15669948 3 18267028447673916204
15775835 57 18412261696903728857
15852999 172 17918276428997487614
15906896 17 18263086659353988458
16945 1 18271523220774234571
18186145 218 18058740104334211460
20645476 183 18334586762731928654
20711985 344 18124028198421491194
20871998 184 18196106640146290843
21028194 46 18412546496253607408
21524375 3 18408604742746611449
23402539 116 18129930269375455429
23419403 2 13095589683370871888
23526113 38 17275385443222802218
23526114 1 18196370312530876551
23598291 2 18040996293523217974
2748010 2 18269571458691156279
305870 269 18266175032897159606
366044 4 18342737399173023426
5084963 1 18342740710598304297
528862 383 18117269264312132402
5706482 22 18410848837431016377
69090 78 18272364304246248970
7364860 26 17838898131580047783
81228 2 17980757461013916403
81539 233 18263363582050181805
9939556 21 18261673791834757604

> <PUBCHEM_SHAPE_MULTIPOLES>
255.8
4.98
2.5
1.1
2.65
1.61
0
-2.7
0.25
-1.25
0.7
0.21
0.03
-0.38

> <PUBCHEM_SHAPE_SELFOVERLAP>
479.373

> <PUBCHEM_SHAPE_VOLUME>
160.1

> <PUBCHEM_COORDINATE_TYPE>
2
5
10

$$$$
