82511
  -OEChem-11232109233D

 39 39  0     0  0  0  0  0  0999 V2000
   -1.3634    0.3341    0.0194 O   0  0  0  0  0  0  0  0  0  0  0  0
   -0.0226    2.2086   -0.0752 O   0  0  0  0  0  0  0  0  0  0  0  0
    4.8417    0.2492   -0.0267 C   0  0  0  0  0  0  0  0  0  0  0  0
    3.4655   -0.4193   -0.0126 C   0  0  0  0  0  0  0  0  0  0  0  0
    5.9647   -0.7895   -0.0131 C   0  0  0  0  0  0  0  0  0  0  0  0
    2.3426    0.6227    0.0073 C   0  0  0  0  0  0  0  0  0  0  0  0
    7.3393   -0.1218    0.0066 C   0  0  0  0  0  0  0  0  0  0  0  0
    0.9544   -0.0158    0.0500 C   0  0  0  0  0  0  0  0  0  0  0  0
    8.4577   -1.1505    0.0542 C   0  0  0  0  0  0  0  0  0  0  0  0
   -0.1688    0.9962   -0.0006 C   0  0  0  0  0  0  0  0  0  0  0  0
   -2.5286    1.1621   -0.0552 C   0  0  0  0  0  0  0  0  0  0  0  0
   -3.7506    0.2922   -0.0225 C   0  0  0  0  0  0  0  0  0  0  0  0
   -4.2885   -0.1843   -1.2128 C   0  0  0  0  0  0  0  0  0  0  0  0
   -4.3340   -0.0303    1.1979 C   0  0  0  0  0  0  0  0  0  0  0  0
   -5.4245   -0.9932   -1.1825 C   0  0  0  0  0  0  0  0  0  0  0  0
   -5.4698   -0.8393    1.2280 C   0  0  0  0  0  0  0  0  0  0  0  0
   -6.0151   -1.3208    0.0378 C   0  0  0  0  0  0  0  0  0  0  0  0
    4.9352    0.8815   -0.9179 H   0  0  0  0  0  0  0  0  0  0  0  0
    4.9389    0.9051    0.8470 H   0  0  0  0  0  0  0  0  0  0  0  0
    3.3568   -1.0602   -0.8959 H   0  0  0  0  0  0  0  0  0  0  0  0
    3.3786   -1.0652    0.8694 H   0  0  0  0  0  0  0  0  0  0  0  0
    5.8805   -1.4348   -0.8959 H   0  0  0  0  0  0  0  0  0  0  0  0
    5.8577   -1.4330    0.8687 H   0  0  0  0  0  0  0  0  0  0  0  0
    2.4648    1.2811    0.8766 H   0  0  0  0  0  0  0  0  0  0  0  0
    2.4241    1.2617   -0.8810 H   0  0  0  0  0  0  0  0  0  0  0  0
    7.4215    0.5370    0.8789 H   0  0  0  0  0  0  0  0  0  0  0  0
    7.4619    0.5038   -0.8852 H   0  0  0  0  0  0  0  0  0  0  0  0
    0.8377   -0.6892   -0.8070 H   0  0  0  0  0  0  0  0  0  0  0  0
    0.8478   -0.5967    0.9731 H   0  0  0  0  0  0  0  0  0  0  0  0
    9.4316   -0.6513    0.0661 H   0  0  0  0  0  0  0  0  0  0  0  0
    8.3828   -1.7704    0.9533 H   0  0  0  0  0  0  0  0  0  0  0  0
    8.4235   -1.8078   -0.8205 H   0  0  0  0  0  0  0  0  0  0  0  0
   -2.5063    1.7500   -0.9813 H   0  0  0  0  0  0  0  0  0  0  0  0
   -2.5394    1.8630    0.7889 H   0  0  0  0  0  0  0  0  0  0  0  0
   -3.8353    0.0627   -2.1689 H   0  0  0  0  0  0  0  0  0  0  0  0
   -3.9164    0.3375    2.1311 H   0  0  0  0  0  0  0  0  0  0  0  0
   -5.8486   -1.3688   -2.1092 H   0  0  0  0  0  0  0  0  0  0  0  0
   -5.9294   -1.0950    2.1782 H   0  0  0  0  0  0  0  0  0  0  0  0
   -6.8993   -1.9510    0.0614 H   0  0  0  0  0  0  0  0  0  0  0  0
  1 10  1  0  0  0  0
  1 11  1  0  0  0  0
  2 10  2  0  0  0  0
  3  4  1  0  0  0  0
  3  5  1  0  0  0  0
  3 18  1  0  0  0  0
  3 19  1  0  0  0  0
  4  6  1  0  0  0  0
  4 20  1  0  0  0  0
  4 21  1  0  0  0  0
  5  7  1  0  0  0  0
  5 22  1  0  0  0  0
  5 23  1  0  0  0  0
  6  8  1  0  0  0  0
  6 24  1  0  0  0  0
  6 25  1  0  0  0  0
  7  9  1  0  0  0  0
  7 26  1  0  0  0  0
  7 27  1  0  0  0  0
  8 10  1  0  0  0  0
  8 28  1  0  0  0  0
  8 29  1  0  0  0  0
  9 30  1  0  0  0  0
  9 31  1  0  0  0  0
  9 32  1  0  0  0  0
 11 12  1  0  0  0  0
 11 33  1  0  0  0  0
 11 34  1  0  0  0  0
 12 13  2  0  0  0  0
 12 14  1  0  0  0  0
 13 15  1  0  0  0  0
 13 35  1  0  0  0  0
 14 16  2  0  0  0  0
 14 36  1  0  0  0  0
 15 17  2  0  0  0  0
 15 37  1  0  0  0  0
 16 17  1  0  0  0  0
 16 38  1  0  0  0  0
 17 39  1  0  0  0  0
M  END
> <PUBCHEM_COMPOUND_CID>
82511

> <PUBCHEM_CONFORMER_RMSD>
1

> <PUBCHEM_CONFORMER_DIVERSEORDER>
1
636
183
293
9
524
314
2
493
15
142
380
105
82
49
98
137
39
300
492
619
21
160
292
46
459
116
422
438
388
43
188
200
10
440
124
432
508
125
276
633
391
658
273
270
17
177
569
112
4
257
53
84
556
3
546
417
29
159
281
109
230
34
27
45
90
489
110
286
6
581
612
402
374
65
38
42
648
213
161
50
341
75
96
155
33
466
308
398
545
87
83
429
197
182
144
35
203
81
149
627
208
496
617
426
224
645
56
123
196
482
369
234
186
551
386

> <PUBCHEM_MMFF94_PARTIAL_CHARGES>
16
1 -0.43
10 0.66
11 0.42
12 -0.14
13 -0.15
14 -0.15
15 -0.15
16 -0.15
17 -0.15
2 -0.57
35 0.15
36 0.15
37 0.15
38 0.15
39 0.15
8 0.06

> <PUBCHEM_EFFECTIVE_ROTOR_COUNT>
9

> <PUBCHEM_PHARMACOPHORE_FEATURES>
5
1 2 acceptor
1 9 hydrophobe
3 3 5 7 hydrophobe
3 4 6 8 hydrophobe
6 12 13 14 15 16 17 rings

> <PUBCHEM_HEAVY_ATOM_COUNT>
17

> <PUBCHEM_ATOM_DEF_STEREO_COUNT>
0

> <PUBCHEM_ATOM_UDEF_STEREO_COUNT>
0

> <PUBCHEM_BOND_DEF_STEREO_COUNT>
0

> <PUBCHEM_BOND_UDEF_STEREO_COUNT>
0

> <PUBCHEM_ISOTOPIC_ATOM_COUNT>
0

> <PUBCHEM_COMPONENT_COUNT>
1

> <PUBCHEM_CACTVS_TAUTO_COUNT>
1

> <PUBCHEM_CONFORMER_ID>
0001424F00000001

> <PUBCHEM_MMFF94_ENERGY>
18.486

> <PUBCHEM_FEATURE_SELFOVERLAP>
25.384

> <PUBCHEM_SHAPE_FINGERPRINT>
10 15 12823296805630940134
10066227 112 10015574005138806050
10066227 49 17313659336218716778
10087517 78 11891322136840793343
10299344 5 17775287175356985030
11315181 36 17458630016663887333
12091667 2 18412262817948072333
12596602 18 16702300178278400147
13288520 33 18410573994474751741
13403585 85 14764634101150701115
13668630 136 17966971625569643898
13862211 1 18410573985636767358
13968360 50 15574708080918761370
14123256 10 17749107785760749618
14123256 34 18411140238414771056
1420 363 18410015437993182426
14251752 14 15864066581432835538
14251764 18 17775565364736351284
14251764 46 16988843877965379766
14729087 3 8718825380064941542
14849402 71 16629670894761794872
15048467 5 9295287240438018958
15183329 4 13117996700101168132
15348495 7 14404890436440526822
15716309 27 18131351916545940346
17093844 174 17846778482141276097
17780758 139 17275106128894177323
17870717 6 17022901268580488691
1818759 1 17060345073157272110
18643901 69 16878230861735503187
19489759 90 15791730797788551381
20281389 69 10952050048199307626
20621476 66 10663811993263015328
21095123 145 14045450202848549020
21150785 3 16515405175262916966
21267235 1 18410014350918063588
220451 1 15195561291658457316
22224240 67 16559027195193467582
22896161 15 18411136944602220308
23035841 295 18202565090101859886
23198884 109 13912321287448851387
23402539 116 18409730642943773229
23559900 14 17604434131598591245
246663 6 18131355198681838862
2767999 5 8502655896005915142
293599 30 9727633899550210540
300161 21 9223231836686095692
33532 11 18271526395816019326
351380 3 18342173379931065903
5969126 39 18333726897141790412

> <PUBCHEM_SHAPE_MULTIPOLES>
338.11
22.36
1.34
0.96
35.53
0.33
0.01
-11.66
0.43
-0.43
-0.04
-1.72
-0.18
-0.1

> <PUBCHEM_SHAPE_SELFOVERLAP>
665.077

> <PUBCHEM_SHAPE_VOLUME>
202.5

> <PUBCHEM_COORDINATE_TYPE>
2
5
10

$$$$
