82584
  -OEChem-11232108483D

 30 30  0     0  0  0  0  0  0999 V2000
   -0.2159    0.1548    0.0005 O   0  0  0  0  0  0  0  0  0  0  0  0
   -1.7769    1.8536   -0.0256 O   0  0  0  0  0  0  0  0  0  0  0  0
   -3.9173    0.0167    0.0300 C   0  0  0  0  0  0  0  0  0  0  0  0
   -4.9036   -1.1502    0.0092 C   0  0  0  0  0  0  0  0  0  0  0  0
   -2.4716   -0.4770    0.0129 C   0  0  0  0  0  0  0  0  0  0  0  0
   -6.3432   -0.6622   -0.0126 C   0  0  0  0  0  0  0  0  0  0  0  0
   -1.4827    0.6663   -0.0060 C   0  0  0  0  0  0  0  0  0  0  0  0
    0.8393    1.1215   -0.0175 C   0  0  0  0  0  0  0  0  0  0  0  0
    2.1586    0.4067   -0.0076 C   0  0  0  0  0  0  0  0  0  0  0  0
    2.7662    0.0995    1.2046 C   0  0  0  0  0  0  0  0  0  0  0  0
    2.7620    0.0583   -1.2109 C   0  0  0  0  0  0  0  0  0  0  0  0
    3.9928   -0.5647    1.2140 C   0  0  0  0  0  0  0  0  0  0  0  0
    3.9885   -0.6059   -1.2017 C   0  0  0  0  0  0  0  0  0  0  0  0
    4.6039   -0.9173    0.0107 C   0  0  0  0  0  0  0  0  0  0  0  0
   -4.0881    0.6317    0.9223 H   0  0  0  0  0  0  0  0  0  0  0  0
   -4.0953    0.6646   -0.8376 H   0  0  0  0  0  0  0  0  0  0  0  0
   -2.2996   -1.0891   -0.8796 H   0  0  0  0  0  0  0  0  0  0  0  0
   -2.2785   -1.0832    0.9051 H   0  0  0  0  0  0  0  0  0  0  0  0
   -4.7500   -1.7830    0.8909 H   0  0  0  0  0  0  0  0  0  0  0  0
   -4.7241   -1.7746   -0.8738 H   0  0  0  0  0  0  0  0  0  0  0  0
   -6.5661   -0.0583    0.8728 H   0  0  0  0  0  0  0  0  0  0  0  0
   -6.5382   -0.0540   -0.9017 H   0  0  0  0  0  0  0  0  0  0  0  0
   -7.0317   -1.5130   -0.0256 H   0  0  0  0  0  0  0  0  0  0  0  0
    0.7564    1.7766    0.8588 H   0  0  0  0  0  0  0  0  0  0  0  0
    0.7535    1.7467   -0.9151 H   0  0  0  0  0  0  0  0  0  0  0  0
    2.2980    0.3676    2.1477 H   0  0  0  0  0  0  0  0  0  0  0  0
    2.2906    0.2942   -2.1609 H   0  0  0  0  0  0  0  0  0  0  0  0
    4.4718   -0.8078    2.1580 H   0  0  0  0  0  0  0  0  0  0  0  0
    4.4643   -0.8811   -2.1385 H   0  0  0  0  0  0  0  0  0  0  0  0
    5.5588   -1.4346    0.0179 H   0  0  0  0  0  0  0  0  0  0  0  0
  1  7  1  0  0  0  0
  1  8  1  0  0  0  0
  2  7  2  0  0  0  0
  3  4  1  0  0  0  0
  3  5  1  0  0  0  0
  3 15  1  0  0  0  0
  3 16  1  0  0  0  0
  4  6  1  0  0  0  0
  4 19  1  0  0  0  0
  4 20  1  0  0  0  0
  5  7  1  0  0  0  0
  5 17  1  0  0  0  0
  5 18  1  0  0  0  0
  6 21  1  0  0  0  0
  6 22  1  0  0  0  0
  6 23  1  0  0  0  0
  8  9  1  0  0  0  0
  8 24  1  0  0  0  0
  8 25  1  0  0  0  0
  9 10  2  0  0  0  0
  9 11  1  0  0  0  0
 10 12  1  0  0  0  0
 10 26  1  0  0  0  0
 11 13  2  0  0  0  0
 11 27  1  0  0  0  0
 12 14  2  0  0  0  0
 12 28  1  0  0  0  0
 13 14  1  0  0  0  0
 13 29  1  0  0  0  0
 14 30  1  0  0  0  0
M  END
> <PUBCHEM_COMPOUND_CID>
82584

> <PUBCHEM_CONFORMER_RMSD>
0.6

> <PUBCHEM_CONFORMER_DIVERSEORDER>
1
107
155
167
96
34
94
33
110
44
118
80
62
14
150
125
140
122
77
69
51
15
74
157
42
121
117
48
72
126
6
40
9
100
168
29
55
104
57
165
127
49
7
123
79
131
58
4
73
141
119
114
97
106
17
56
159
82
101
145
133
142
83
149
26
28
108
61
163
53
76
120
102
154
111
10
152
166
112
35
60
124
162
5
39
18
86
115
160
98
135
20
129
113
52
27
16
23
30
59
144
47
89
90
93
22
38
92
64
148
11
70
130
68
36
8
169
31
128
19
95
87
41
37
85
50
161
3
164
116
12
146
43
25
91
84
24
54
105
32
151
78
13
156
71
134
45
158
66
81
21
2
143
99
147
137
153
109
88
136
46
65
63
67
132
75
139
138
103

> <PUBCHEM_MMFF94_PARTIAL_CHARGES>
16
1 -0.43
10 -0.15
11 -0.15
12 -0.15
13 -0.15
14 -0.15
2 -0.57
26 0.15
27 0.15
28 0.15
29 0.15
30 0.15
5 0.06
7 0.66
8 0.42
9 -0.14

> <PUBCHEM_EFFECTIVE_ROTOR_COUNT>
6

> <PUBCHEM_PHARMACOPHORE_FEATURES>
3
1 2 acceptor
1 6 hydrophobe
6 9 10 11 12 13 14 rings

> <PUBCHEM_HEAVY_ATOM_COUNT>
14

> <PUBCHEM_ATOM_DEF_STEREO_COUNT>
0

> <PUBCHEM_ATOM_UDEF_STEREO_COUNT>
0

> <PUBCHEM_BOND_DEF_STEREO_COUNT>
0

> <PUBCHEM_BOND_UDEF_STEREO_COUNT>
0

> <PUBCHEM_ISOTOPIC_ATOM_COUNT>
0

> <PUBCHEM_COMPONENT_COUNT>
1

> <PUBCHEM_CACTVS_TAUTO_COUNT>
1

> <PUBCHEM_CONFORMER_ID>
0001429800000001

> <PUBCHEM_MMFF94_ENERGY>
18.9884

> <PUBCHEM_FEATURE_SELFOVERLAP>
15.223

> <PUBCHEM_SHAPE_FINGERPRINT>
100836 57 9655575222953566707
10354089 29 14333408960862698362
10688039 33 16200436857834829523
11471102 20 15068627072082809590
11543360 7 15574718031814594665
12596602 18 14692572135105519735
13675066 3 17132115736517733161
13836976 161 16805041817959652450
13862211 1 18411133663115694703
14251752 14 17676479515893316389
14252887 29 17418380177310106982
14366163 111 14129053729586925695
14445660 50 13398620662985336572
14576447 43 17676205745845308970
15242439 84 12540698102483184032
15885798 251 18202566185392575025
17834072 33 15647054889090088819
18222031 100 18341333374796581685
19141452 34 17632855369569125375
200 152 17385722487078635269
20369508 70 18114176466962727504
20374829 77 18409447007909528191
20432913 95 17561089107136066047
20605781 2 8214145153316587271
20645477 70 15213291994144341698
21354914 88 18343021107912406123
221357 26 14779539084934870807
22224240 67 17131538527716156730
22289505 5 13840258200100740710
23402539 116 18410851049945971733
23402655 69 14996004341489006346
23503953 91 14836395943445123206
23590187 302 16298103198590911484
26918003 58 16702020885350647755
2767999 5 10447931646735107003
29717793 49 17603587391955081726
3060560 45 15213020449438175594
3472631 163 9583222964321436810
351380 3 18333448759702496635
4047638 21 10737283550089406596
42 15 17132119039231389779
465052 167 18336553801929847943
522135 26 16226044496446139826
5374978 207 18273212027569015168

> <PUBCHEM_SHAPE_MULTIPOLES>
276.37
12.81
1.19
1.04
14.88
0.28
0
-5.78
-0.08
0.44
0.01
-1.46
-0.11
0.04

> <PUBCHEM_SHAPE_SELFOVERLAP>
551.821

> <PUBCHEM_SHAPE_VOLUME>
163.6

> <PUBCHEM_COORDINATE_TYPE>
2
5
10

$$$$
