82635
  -OEChem-11232108563D

 50 49  0     0  0  0  0  0  0999 V2000
    3.5381   -0.0650    0.3768 O   0  0  0  0  0  0  0  0  0  0  0  0
    3.7149   -1.3160   -1.5564 O   0  0  0  0  0  0  0  0  0  0  0  0
   -0.6947   -1.5533    0.8097 C   0  0  0  0  0  0  0  0  0  0  0  0
   -1.7966   -1.3425   -0.2315 C   0  0  0  0  0  0  0  0  0  0  0  0
    0.6488   -1.8564    0.1442 C   0  0  0  0  0  0  0  0  0  0  0  0
   -3.1459   -1.0714    0.4377 C   0  0  0  0  0  0  0  0  0  0  0  0
    1.7423   -2.1002    1.1844 C   0  0  0  0  0  0  0  0  0  0  0  0
   -4.2930   -0.8832   -0.5591 C   0  0  0  0  0  0  0  0  0  0  0  0
    3.0879   -2.3693    0.5218 C   0  0  0  0  0  0  0  0  0  0  0  0
   -5.6458   -0.6369    0.1100 C   0  0  0  0  0  0  0  0  0  0  0  0
    1.6735    2.1615    0.2513 C   0  0  0  0  0  0  0  0  0  0  0  0
    2.6170    1.7632   -0.8826 C   0  0  0  0  0  0  0  0  0  0  0  0
    0.3641    2.7870   -0.2375 C   0  0  0  0  0  0  0  0  0  0  0  0
    3.8889    1.1168   -0.3500 C   0  0  0  0  0  0  0  0  0  0  0  0
   -0.5695    3.2082    0.8981 C   0  0  0  0  0  0  0  0  0  0  0  0
    3.4894   -1.2131   -0.3575 C   0  0  0  0  0  0  0  0  0  0  0  0
   -6.7360   -0.3851   -0.9206 C   0  0  0  0  0  0  0  0  0  0  0  0
   -1.8834    3.7556    0.3612 C   0  0  0  0  0  0  0  0  0  0  0  0
   -0.6024   -0.6559    1.4337 H   0  0  0  0  0  0  0  0  0  0  0  0
   -0.9701   -2.3823    1.4728 H   0  0  0  0  0  0  0  0  0  0  0  0
   -1.8773   -2.2317   -0.8682 H   0  0  0  0  0  0  0  0  0  0  0  0
   -1.5343   -0.4997   -0.8825 H   0  0  0  0  0  0  0  0  0  0  0  0
    0.5506   -2.7414   -0.4963 H   0  0  0  0  0  0  0  0  0  0  0  0
    0.9089   -1.0155   -0.5077 H   0  0  0  0  0  0  0  0  0  0  0  0
   -3.0647   -0.1744    1.0643 H   0  0  0  0  0  0  0  0  0  0  0  0
   -3.3907   -1.9047    1.1079 H   0  0  0  0  0  0  0  0  0  0  0  0
    1.4740   -2.9630    1.8057 H   0  0  0  0  0  0  0  0  0  0  0  0
    1.8128   -1.2368    1.8569 H   0  0  0  0  0  0  0  0  0  0  0  0
   -4.0546   -0.0382   -1.2171 H   0  0  0  0  0  0  0  0  0  0  0  0
   -4.3637   -1.7716   -1.1988 H   0  0  0  0  0  0  0  0  0  0  0  0
    3.8708   -2.5293    1.2705 H   0  0  0  0  0  0  0  0  0  0  0  0
    3.0342   -3.2732   -0.0955 H   0  0  0  0  0  0  0  0  0  0  0  0
   -5.5768    0.2289    0.7786 H   0  0  0  0  0  0  0  0  0  0  0  0
   -5.9184   -1.5020    0.7252 H   0  0  0  0  0  0  0  0  0  0  0  0
    2.1844    2.8732    0.9118 H   0  0  0  0  0  0  0  0  0  0  0  0
    1.4300    1.2846    0.8627 H   0  0  0  0  0  0  0  0  0  0  0  0
    2.0967    1.0673   -1.5510 H   0  0  0  0  0  0  0  0  0  0  0  0
    2.8806    2.6493   -1.4711 H   0  0  0  0  0  0  0  0  0  0  0  0
   -0.1533    2.0655   -0.8824 H   0  0  0  0  0  0  0  0  0  0  0  0
    0.5924    3.6610   -0.8601 H   0  0  0  0  0  0  0  0  0  0  0  0
    4.3997    1.7906    0.3463 H   0  0  0  0  0  0  0  0  0  0  0  0
    4.5941    0.8998   -1.1605 H   0  0  0  0  0  0  0  0  0  0  0  0
   -0.7771    2.3481    1.5453 H   0  0  0  0  0  0  0  0  0  0  0  0
   -0.0819    3.9706    1.5161 H   0  0  0  0  0  0  0  0  0  0  0  0
   -6.5063    0.4964   -1.5277 H   0  0  0  0  0  0  0  0  0  0  0  0
   -7.6954   -0.2137   -0.4225 H   0  0  0  0  0  0  0  0  0  0  0  0
   -6.8490   -1.2440   -1.5897 H   0  0  0  0  0  0  0  0  0  0  0  0
   -1.7138    4.6319   -0.2724 H   0  0  0  0  0  0  0  0  0  0  0  0
   -2.4106    2.9997   -0.2300 H   0  0  0  0  0  0  0  0  0  0  0  0
   -2.5351    4.0546    1.1881 H   0  0  0  0  0  0  0  0  0  0  0  0
  1 14  1  0  0  0  0
  1 16  1  0  0  0  0
  2 16  2  0  0  0  0
  3  4  1  0  0  0  0
  3  5  1  0  0  0  0
  3 19  1  0  0  0  0
  3 20  1  0  0  0  0
  4  6  1  0  0  0  0
  4 21  1  0  0  0  0
  4 22  1  0  0  0  0
  5  7  1  0  0  0  0
  5 23  1  0  0  0  0
  5 24  1  0  0  0  0
  6  8  1  0  0  0  0
  6 25  1  0  0  0  0
  6 26  1  0  0  0  0
  7  9  1  0  0  0  0
  7 27  1  0  0  0  0
  7 28  1  0  0  0  0
  8 10  1  0  0  0  0
  8 29  1  0  0  0  0
  8 30  1  0  0  0  0
  9 16  1  0  0  0  0
  9 31  1  0  0  0  0
  9 32  1  0  0  0  0
 10 17  1  0  0  0  0
 10 33  1  0  0  0  0
 10 34  1  0  0  0  0
 11 12  1  0  0  0  0
 11 13  1  0  0  0  0
 11 35  1  0  0  0  0
 11 36  1  0  0  0  0
 12 14  1  0  0  0  0
 12 37  1  0  0  0  0
 12 38  1  0  0  0  0
 13 15  1  0  0  0  0
 13 39  1  0  0  0  0
 13 40  1  0  0  0  0
 14 41  1  0  0  0  0
 14 42  1  0  0  0  0
 15 18  1  0  0  0  0
 15 43  1  0  0  0  0
 15 44  1  0  0  0  0
 17 45  1  0  0  0  0
 17 46  1  0  0  0  0
 17 47  1  0  0  0  0
 18 48  1  0  0  0  0
 18 49  1  0  0  0  0
 18 50  1  0  0  0  0
M  END
> <PUBCHEM_COMPOUND_CID>
82635

> <PUBCHEM_CONFORMER_RMSD>
1.4

> <PUBCHEM_CONFORMER_DIVERSEORDER>
2
8
15
1
40
39
17
18
48
33
54
44
23
13
4
7
35
47
21
12
28
51
37
3
46
27
29
5
9
42
57
16
32
38
30
36
55
43
49
41
24
58
50
31
52
25
14
10
56
6
34
26
22
45
11
19
53
20

> <PUBCHEM_MMFF94_PARTIAL_CHARGES>
5
1 -0.43
14 0.28
16 0.66
2 -0.57
9 0.06

> <PUBCHEM_EFFECTIVE_ROTOR_COUNT>
14

> <PUBCHEM_PHARMACOPHORE_FEATURES>
4
1 17 hydrophobe
1 18 hydrophobe
1 2 acceptor
4 11 12 13 15 hydrophobe

> <PUBCHEM_HEAVY_ATOM_COUNT>
18

> <PUBCHEM_ATOM_DEF_STEREO_COUNT>
0

> <PUBCHEM_ATOM_UDEF_STEREO_COUNT>
0

> <PUBCHEM_BOND_DEF_STEREO_COUNT>
0

> <PUBCHEM_BOND_UDEF_STEREO_COUNT>
0

> <PUBCHEM_ISOTOPIC_ATOM_COUNT>
0

> <PUBCHEM_COMPONENT_COUNT>
1

> <PUBCHEM_CACTVS_TAUTO_COUNT>
1

> <PUBCHEM_CONFORMER_ID>
000142CB00000002

> <PUBCHEM_MMFF94_ENERGY>
-0.8143

> <PUBCHEM_FEATURE_SELFOVERLAP>
20.297

> <PUBCHEM_SHAPE_FINGERPRINT>
116883 192 18341339920258097532
14251757 17 18114165424749561477
14464042 87 18272655636663651201
14681490 219 18411696612979425925
14931854 50 18335710437587321092
15210252 30 17968663846895158068
17093844 170 18265610060394593440
20621476 13 18122907804615528777
21279426 13 18337103485230478285
21344244 78 17972570265416196394
221357 26 18408880729256089623
22289505 5 18408037424769317159
3014063 31 18410572881688117705
338550 245 18262811653073188309
3524813 1 18040706008824992814
6443956 14 18337110184566952957
7164475 11 18195807362577897058

> <PUBCHEM_SHAPE_MULTIPOLES>
358.69
11.04
4.28
1.05
18.55
4.5
0.09
-4.39
3.62
-1.34
-1.04
-0.29
-0.15
-0.64

> <PUBCHEM_SHAPE_SELFOVERLAP>
655.385

> <PUBCHEM_SHAPE_VOLUME>
228

> <PUBCHEM_COORDINATE_TYPE>
2
5
10

$$$$
