82694
  -OEChem-11232109033D

 37 36  0     0  0  0  0  0  0999 V2000
   -4.3396    0.4254    0.2565 O   0  0  0  0  0  0  0  0  0  0  0  0
   -2.8721    1.4443   -1.2144 O   0  0  0  0  0  0  0  0  0  0  0  0
    2.8729   -0.9470   -0.2624 C   0  0  0  0  0  0  0  0  0  0  0  0
    3.5896    0.2334    0.3973 C   0  0  0  0  0  0  0  0  0  0  0  0
    1.4714   -1.1431    0.3197 C   0  0  0  0  0  0  0  0  0  0  0  0
    5.0029    0.4067   -0.1632 C   0  0  0  0  0  0  0  0  0  0  0  0
    0.7683   -2.3457   -0.3190 C   0  0  0  0  0  0  0  0  0  0  0  0
    5.7735    1.5611    0.4812 C   0  0  0  0  0  0  0  0  0  0  0  0
   -0.6264   -2.5941    0.2578 C   0  0  0  0  0  0  0  0  0  0  0  0
    7.1697    1.7536   -0.0903 C   0  0  0  0  0  0  0  0  0  0  0  0
   -1.5415   -1.4727    0.0050 C   0  0  0  0  0  0  0  0  0  0  0  0
   -2.2900   -0.5564   -0.2008 C   0  0  0  0  0  0  0  0  0  0  0  0
   -3.1835    0.5444   -0.4488 C   0  0  0  0  0  0  0  0  0  0  0  0
   -5.2854    1.4831    0.0674 C   0  0  0  0  0  0  0  0  0  0  0  0
   -6.5098    1.2069    0.9139 C   0  0  0  0  0  0  0  0  0  0  0  0
    2.8024   -0.7777   -1.3437 H   0  0  0  0  0  0  0  0  0  0  0  0
    3.4613   -1.8610   -0.1155 H   0  0  0  0  0  0  0  0  0  0  0  0
    3.0147    1.1531    0.2348 H   0  0  0  0  0  0  0  0  0  0  0  0
    3.6446    0.0727    1.4807 H   0  0  0  0  0  0  0  0  0  0  0  0
    0.8886   -0.2291    0.1577 H   0  0  0  0  0  0  0  0  0  0  0  0
    1.5413   -1.2953    1.4036 H   0  0  0  0  0  0  0  0  0  0  0  0
    5.5674   -0.5229   -0.0188 H   0  0  0  0  0  0  0  0  0  0  0  0
    4.9434    0.5755   -1.2457 H   0  0  0  0  0  0  0  0  0  0  0  0
    0.6972   -2.1920   -1.4034 H   0  0  0  0  0  0  0  0  0  0  0  0
    1.3762   -3.2454   -0.1634 H   0  0  0  0  0  0  0  0  0  0  0  0
    5.8534    1.3860    1.5607 H   0  0  0  0  0  0  0  0  0  0  0  0
    5.2080    2.4916    0.3515 H   0  0  0  0  0  0  0  0  0  0  0  0
   -0.5534   -2.7763    1.3363 H   0  0  0  0  0  0  0  0  0  0  0  0
   -1.0388   -3.5055   -0.1904 H   0  0  0  0  0  0  0  0  0  0  0  0
    7.1260    1.9699   -1.1623 H   0  0  0  0  0  0  0  0  0  0  0  0
    7.7774    0.8548    0.0543 H   0  0  0  0  0  0  0  0  0  0  0  0
    7.6724    2.5893    0.4063 H   0  0  0  0  0  0  0  0  0  0  0  0
   -4.8338    2.4349    0.3686 H   0  0  0  0  0  0  0  0  0  0  0  0
   -5.5698    1.5340   -0.9896 H   0  0  0  0  0  0  0  0  0  0  0  0
   -7.2553    1.9979    0.7932 H   0  0  0  0  0  0  0  0  0  0  0  0
   -6.9622    0.2491    0.6363 H   0  0  0  0  0  0  0  0  0  0  0  0
   -6.2383    1.1352    1.9723 H   0  0  0  0  0  0  0  0  0  0  0  0
  1 13  1  0  0  0  0
  1 14  1  0  0  0  0
  2 13  2  0  0  0  0
  3  4  1  0  0  0  0
  3  5  1  0  0  0  0
  3 16  1  0  0  0  0
  3 17  1  0  0  0  0
  4  6  1  0  0  0  0
  4 18  1  0  0  0  0
  4 19  1  0  0  0  0
  5  7  1  0  0  0  0
  5 20  1  0  0  0  0
  5 21  1  0  0  0  0
  6  8  1  0  0  0  0
  6 22  1  0  0  0  0
  6 23  1  0  0  0  0
  7  9  1  0  0  0  0
  7 24  1  0  0  0  0
  7 25  1  0  0  0  0
  8 10  1  0  0  0  0
  8 26  1  0  0  0  0
  8 27  1  0  0  0  0
  9 11  1  0  0  0  0
  9 28  1  0  0  0  0
  9 29  1  0  0  0  0
 10 30  1  0  0  0  0
 10 31  1  0  0  0  0
 10 32  1  0  0  0  0
 11 12  3  0  0  0  0
 12 13  1  0  0  0  0
 14 15  1  0  0  0  0
 14 33  1  0  0  0  0
 14 34  1  0  0  0  0
 15 35  1  0  0  0  0
 15 36  1  0  0  0  0
 15 37  1  0  0  0  0
M  END
> <PUBCHEM_COMPOUND_CID>
82694

> <PUBCHEM_CONFORMER_RMSD>
0.8

> <PUBCHEM_CONFORMER_DIVERSEORDER>
1
120
166
91
48
161
66
27
142
110
160
78
88
58
151
144
79
87
111
181
81
28
102
133
116
10
33
168
86
92
37
177
4
117
176
122
71
167
141
14
128
20
179
65
180
26
109
35
95
11
61
2
101
24
60
175
138
3
47
134
165
108
162
182
16
19
23
59
136
126
22
6
99
54
5
93
137
100
8
178
119
75
106
52
7
83
155
36
12
125
115
62
156
135
76
9
113
82
107
42
80
94
90
98
132
169
139
158
172
153
85
50
18
121
129
74
49
112
104
44
124
73
159
32
146
147
174
40
15
96
39
13
89
164
145
29
143
118
69
140
41
21
130
46
152
67
123
34
31
171
170
55
131
77
30
150
148
84
103
63
149
17
72
43
56
53
127
45
154
114
157
173
57
25
97
70
163
105
64
51
38
68

> <PUBCHEM_MMFF94_PARTIAL_CHARGES>
7
1 -0.43
11 -0.2
12 -0.1
13 0.83
14 0.28
2 -0.57
9 0.2

> <PUBCHEM_EFFECTIVE_ROTOR_COUNT>
8

> <PUBCHEM_PHARMACOPHORE_FEATURES>
2
1 10 hydrophobe
1 2 acceptor

> <PUBCHEM_HEAVY_ATOM_COUNT>
15

> <PUBCHEM_ATOM_DEF_STEREO_COUNT>
0

> <PUBCHEM_ATOM_UDEF_STEREO_COUNT>
0

> <PUBCHEM_BOND_DEF_STEREO_COUNT>
0

> <PUBCHEM_BOND_UDEF_STEREO_COUNT>
0

> <PUBCHEM_ISOTOPIC_ATOM_COUNT>
0

> <PUBCHEM_COMPONENT_COUNT>
1

> <PUBCHEM_CACTVS_TAUTO_COUNT>
1

> <PUBCHEM_CONFORMER_ID>
0001430600000001

> <PUBCHEM_MMFF94_ENERGY>
-0.3056

> <PUBCHEM_FEATURE_SELFOVERLAP>
10.148

> <PUBCHEM_SHAPE_FINGERPRINT>
100836 57 18411139134386688338
10493431 412 18408604755905735551
10753850 27 9655575201520818061
12760667 363 9511464437451207095
12892183 10 16298938749876133626
13862211 1 8646768897832777616
13885169 86 18338242655805783752
13955234 65 18119251653855361483
14123255 352 18410007763039696262
14123256 34 9583516542294447565
14251752 14 12463300163558551291
15501527 16 18409448102693496602
15519825 34 16081941484671342393
15778101 99 18411421747756787114
17834072 32 18410854404009305660
20281389 69 18259700108481069948
20374829 77 9727637202285115575
20526848 3 18413393133086804040
20621476 21 11531299115542930960
20621476 66 18409732906792464828
20621476 91 17241348944605001467
20645477 56 18410575128029886114
21307412 95 11239991253326138441
21401589 2 18260547831392236787
22224240 67 18260551113332663755
23272321 79 18411135831984274467
23402655 69 18060697303993742238
23403322 49 9943811088099947494
23590187 49 18410291419358795758
270888 7 18411980252054956288
293599 30 18411981373352481490
3004659 81 12031785855648565262
3014063 24 11674883311846965417
351380 3 9151174246790056808
5207 123 9511455624463457683
5283384 27 18040987420094755317
5718773 13 8286192834470269809
59682541 35 18261685839676693139
59682541 52 16845304787233626788
6327066 14 18410569595763485796
7062679 6 18187928439185313284
77188 2 17474107596993782526
7808743 9 18408880767573327866

> <PUBCHEM_SHAPE_MULTIPOLES>
296.95
17.32
2.56
0.81
8.16
1.17
0.04
-17.79
-2.31
0.21
-0.04
-0.45
-0.17
0.04

> <PUBCHEM_SHAPE_SELFOVERLAP>
547.648

> <PUBCHEM_SHAPE_VOLUME>
187.1

> <PUBCHEM_COORDINATE_TYPE>
2
5
10

$$$$
