8283
  -OEChem-11232109013D

 40 42  0     1  0  0  0  0  0999 V2000
   -5.6764    0.4110   -0.0679 O   0  0  0  0  0  0  0  0  0  0  0  0
    2.4041   -0.3729    0.7505 C   0  0  0  0  0  0  0  0  0  0  0  0
    3.4883    0.4874    0.1772 C   0  0  2  0  0  0  0  0  0  0  0  0
    2.4449    1.0943    1.0504 C   0  0  1  0  0  0  0  0  0  0  0  0
    1.3586   -0.6146   -0.3308 C   0  0  2  0  0  0  0  0  0  0  0  0
    1.5831    0.7880   -1.0375 C   0  0  0  0  0  0  0  0  0  0  0  0
    3.1350    0.8287   -1.2538 C   0  0  0  0  0  0  0  0  0  0  0  0
    1.4582    1.8040    0.1495 C   0  0  0  0  0  0  0  0  0  0  0  0
    2.6948   -1.3758    1.7949 C   0  0  0  0  0  0  0  0  0  0  0  0
   -0.0536   -0.7983    0.2371 C   0  0  0  0  0  0  0  0  0  0  0  0
    1.6929   -1.8143   -1.2253 C   0  0  0  0  0  0  0  0  0  0  0  0
   -1.0994   -0.7397   -0.8697 C   0  0  0  0  0  0  0  0  0  0  0  0
   -2.4805   -0.9312   -0.3100 C   0  0  0  0  0  0  0  0  0  0  0  0
   -3.3298    0.0170    0.1300 C   0  0  0  0  0  0  0  0  0  0  0  0
   -4.6909   -0.2528    0.7121 C   0  0  0  0  0  0  0  0  0  0  0  0
   -2.9294    1.4692    0.0932 C   0  0  0  0  0  0  0  0  0  0  0  0
    4.5181    0.4207    0.4690 H   0  0  0  0  0  0  0  0  0  0  0  0
    2.6661    1.4979    2.0190 H   0  0  0  0  0  0  0  0  0  0  0  0
    0.9890    1.0086   -1.9242 H   0  0  0  0  0  0  0  0  0  0  0  0
    3.4971    0.0883   -1.9701 H   0  0  0  0  0  0  0  0  0  0  0  0
    3.4924    1.8236   -1.5380 H   0  0  0  0  0  0  0  0  0  0  0  0
    1.8045    2.8063   -0.1229 H   0  0  0  0  0  0  0  0  0  0  0  0
    0.4579    1.8703    0.5792 H   0  0  0  0  0  0  0  0  0  0  0  0
    3.0205   -2.3206    1.3486 H   0  0  0  0  0  0  0  0  0  0  0  0
    3.4879   -1.0393    2.4716 H   0  0  0  0  0  0  0  0  0  0  0  0
    1.8062   -1.5749    2.4022 H   0  0  0  0  0  0  0  0  0  0  0  0
   -0.2798   -0.0630    1.0173 H   0  0  0  0  0  0  0  0  0  0  0  0
   -0.1181   -1.7683    0.7501 H   0  0  0  0  0  0  0  0  0  0  0  0
    2.7684   -1.9123   -1.4065 H   0  0  0  0  0  0  0  0  0  0  0  0
    1.3846   -2.7566   -0.7576 H   0  0  0  0  0  0  0  0  0  0  0  0
    1.2030   -1.7402   -2.2012 H   0  0  0  0  0  0  0  0  0  0  0  0
   -1.0441    0.1922   -1.4388 H   0  0  0  0  0  0  0  0  0  0  0  0
   -0.9417   -1.5402   -1.6014 H   0  0  0  0  0  0  0  0  0  0  0  0
   -2.8037   -1.9690   -0.2403 H   0  0  0  0  0  0  0  0  0  0  0  0
   -4.7447    0.1167    1.7414 H   0  0  0  0  0  0  0  0  0  0  0  0
   -4.9202   -1.3233    0.7169 H   0  0  0  0  0  0  0  0  0  0  0  0
   -3.5237    2.0052   -0.6541 H   0  0  0  0  0  0  0  0  0  0  0  0
   -1.8764    1.6451   -0.1327 H   0  0  0  0  0  0  0  0  0  0  0  0
   -3.1147    1.9302    1.0699 H   0  0  0  0  0  0  0  0  0  0  0  0
   -6.5380    0.2257    0.3433 H   0  0  0  0  0  0  0  0  0  0  0  0
  1 15  1  0  0  0  0
  1 40  1  0  0  0  0
  2  3  1  0  0  0  0
  2  4  1  0  0  0  0
  2  5  1  0  0  0  0
  2  9  1  0  0  0  0
  3  4  1  0  0  0  0
  3  7  1  0  0  0  0
  3 17  1  0  0  0  0
  4  8  1  0  0  0  0
  4 18  1  0  0  0  0
  5  6  1  0  0  0  0
  5 10  1  0  0  0  0
  5 11  1  0  0  0  0
  6  7  1  0  0  0  0
  6  8  1  0  0  0  0
  6 19  1  0  0  0  0
  7 20  1  0  0  0  0
  7 21  1  0  0  0  0
  8 22  1  0  0  0  0
  8 23  1  0  0  0  0
  9 24  1  0  0  0  0
  9 25  1  0  0  0  0
  9 26  1  0  0  0  0
 10 12  1  0  0  0  0
 10 27  1  0  0  0  0
 10 28  1  0  0  0  0
 11 29  1  0  0  0  0
 11 30  1  0  0  0  0
 11 31  1  0  0  0  0
 12 13  1  0  0  0  0
 12 32  1  0  0  0  0
 12 33  1  0  0  0  0
 13 14  2  3  0  0  0
 13 34  1  0  0  0  0
 14 15  1  0  0  0  0
 14 16  1  0  0  0  0
 15 35  1  0  0  0  0
 15 36  1  0  0  0  0
 16 37  1  0  0  0  0
 16 38  1  0  0  0  0
 16 39  1  0  0  0  0
M  END
> <PUBCHEM_COMPOUND_CID>
8283

> <PUBCHEM_CONFORMER_RMSD>
0.6

> <PUBCHEM_CONFORMER_DIVERSEORDER>
13
26
10
29
1
40
15
28
14
38
37
41
12
32
36
4
30
9
35
42
39
22
6
27
7
24
33
20
5
3
31
19
23
16
21
17
8
11
18
2
25
34

> <PUBCHEM_MMFF94_PARTIAL_CHARGES>
17
1 -0.68
12 0.14
13 -0.29
14 -0.28
15 0.42
16 0.14
17 0.1
18 0.1
2 -0.19
3 -0.19
34 0.15
4 -0.19
40 0.4
5 0.09
7 0.09
8 0.09
9 0.09

> <PUBCHEM_EFFECTIVE_ROTOR_COUNT>
4.6

> <PUBCHEM_PHARMACOPHORE_FEATURES>
4
1 1 acceptor
1 1 donor
1 16 hydrophobe
7 2 3 4 5 6 7 8 rings

> <PUBCHEM_HEAVY_ATOM_COUNT>
16

> <PUBCHEM_ATOM_DEF_STEREO_COUNT>
0

> <PUBCHEM_ATOM_UDEF_STEREO_COUNT>
3

> <PUBCHEM_BOND_DEF_STEREO_COUNT>
0

> <PUBCHEM_BOND_UDEF_STEREO_COUNT>
1

> <PUBCHEM_ISOTOPIC_ATOM_COUNT>
0

> <PUBCHEM_COMPONENT_COUNT>
1

> <PUBCHEM_CACTVS_TAUTO_COUNT>
1

> <PUBCHEM_CONFORMER_ID>
0000205B0000000D

> <PUBCHEM_MMFF94_ENERGY>
63.2035

> <PUBCHEM_FEATURE_SELFOVERLAP>
20.297

> <PUBCHEM_SHAPE_FINGERPRINT>
10064457 181 17458348584410250282
10980938 120 18412266125125540447
11086676 242 18261660498721000952
12251169 10 18114177562110647327
13296908 3 14056989529773505215
13533116 47 17749665204403027107
14144814 61 18413670214475104777
14289901 80 17748829639726331465
15061688 2 14404032843430868034
15775835 57 18412545448191799393
16945 1 17677593393975505846
17802600 8 18413385432574393577
18186145 218 16773801376872954903
20233049 118 18342459253139124808
20559304 39 18341895160317850666
212847 35 18407759227163876529
21452121 99 12175041307278551804
22854114 111 18410007766954822945
23048698 100 17748827414759309081
23402539 116 14045744807249957512
23419403 2 15982847763569665494
23557571 272 16558178449336448455
23559900 14 18338245881631970383
276578 36 18114741633361808306
3060560 45 17989494030258319206
347723 3 18335713749840347956
4047638 21 16917351449909898518
42 15 17385720279650061675
5374978 207 18409167697638416009
5939293 188 17988356095605777888
7364860 26 17917154896682430262
94968 8 11097850783110242137
9999458 23 17386009507343467590

> <PUBCHEM_SHAPE_MULTIPOLES>
323.4
8.39
1.63
1.29
13.54
0.06
-0.14
1.29
-1.27
-0.74
0.04
-1.15
-0.31
-0.34

> <PUBCHEM_SHAPE_SELFOVERLAP>
684.216

> <PUBCHEM_SHAPE_VOLUME>
189.6

> <PUBCHEM_COORDINATE_TYPE>
2
5
10

$$$$
