83268
  -OEChem-11232109083D

 30 29  0     0  0  0  0  0  0999 V2000
    3.3537   -0.0958   -0.8339 O   0  0  0  0  0  0  0  0  0  0  0  0
    0.9560   -0.1500   -0.7914 C   0  0  0  0  0  0  0  0  0  0  0  0
   -0.3647   -0.0464   -0.0200 C   0  0  0  0  0  0  0  0  0  0  0  0
    2.2347   -0.0013    0.0583 C   0  0  0  0  0  0  0  0  0  0  0  0
   -1.5624   -0.1364   -0.9742 C   0  0  0  0  0  0  0  0  0  0  0  0
   -2.9461    0.0115   -0.3124 C   0  0  0  0  0  0  0  0  0  0  0  0
    2.3789   -1.1125    1.1003 C   0  0  0  0  0  0  0  0  0  0  0  0
    2.3279    1.3695    0.7296 C   0  0  0  0  0  0  0  0  0  0  0  0
   -3.0910    1.3303    0.4466 C   0  0  0  0  0  0  0  0  0  0  0  0
   -3.2869   -1.1688    0.5971 C   0  0  0  0  0  0  0  0  0  0  0  0
    0.9920   -1.1117   -1.3213 H   0  0  0  0  0  0  0  0  0  0  0  0
    0.9736    0.6101   -1.5846 H   0  0  0  0  0  0  0  0  0  0  0  0
   -0.4249   -0.8484    0.7222 H   0  0  0  0  0  0  0  0  0  0  0  0
   -0.3968    0.9060    0.5163 H   0  0  0  0  0  0  0  0  0  0  0  0
   -1.5249   -1.0927   -1.5115 H   0  0  0  0  0  0  0  0  0  0  0  0
   -1.4633    0.6475   -1.7368 H   0  0  0  0  0  0  0  0  0  0  0  0
   -3.6853    0.0176   -1.1246 H   0  0  0  0  0  0  0  0  0  0  0  0
    3.3498   -1.0525    1.6057 H   0  0  0  0  0  0  0  0  0  0  0  0
    1.5967   -1.0651    1.8638 H   0  0  0  0  0  0  0  0  0  0  0  0
    2.3407   -2.0981    0.6226 H   0  0  0  0  0  0  0  0  0  0  0  0
    1.5591    1.5086    1.4955 H   0  0  0  0  0  0  0  0  0  0  0  0
    3.3053    1.5066    1.2070 H   0  0  0  0  0  0  0  0  0  0  0  0
    2.2321    2.1723   -0.0104 H   0  0  0  0  0  0  0  0  0  0  0  0
   -2.4723    1.3536    1.3492 H   0  0  0  0  0  0  0  0  0  0  0  0
   -4.1307    1.4778    0.7592 H   0  0  0  0  0  0  0  0  0  0  0  0
   -2.8110    2.1788   -0.1863 H   0  0  0  0  0  0  0  0  0  0  0  0
   -3.1933   -2.1165    0.0567 H   0  0  0  0  0  0  0  0  0  0  0  0
   -4.3182   -1.0912    0.9581 H   0  0  0  0  0  0  0  0  0  0  0  0
   -2.6307   -1.2089    1.4724 H   0  0  0  0  0  0  0  0  0  0  0  0
    4.1687   -0.0178   -0.3091 H   0  0  0  0  0  0  0  0  0  0  0  0
  1  4  1  0  0  0  0
  1 30  1  0  0  0  0
  2  3  1  0  0  0  0
  2  4  1  0  0  0  0
  2 11  1  0  0  0  0
  2 12  1  0  0  0  0
  3  5  1  0  0  0  0
  3 13  1  0  0  0  0
  3 14  1  0  0  0  0
  4  7  1  0  0  0  0
  4  8  1  0  0  0  0
  5  6  1  0  0  0  0
  5 15  1  0  0  0  0
  5 16  1  0  0  0  0
  6  9  1  0  0  0  0
  6 10  1  0  0  0  0
  6 17  1  0  0  0  0
  7 18  1  0  0  0  0
  7 19  1  0  0  0  0
  7 20  1  0  0  0  0
  8 21  1  0  0  0  0
  8 22  1  0  0  0  0
  8 23  1  0  0  0  0
  9 24  1  0  0  0  0
  9 25  1  0  0  0  0
  9 26  1  0  0  0  0
 10 27  1  0  0  0  0
 10 28  1  0  0  0  0
 10 29  1  0  0  0  0
M  END
> <PUBCHEM_COMPOUND_CID>
83268

> <PUBCHEM_CONFORMER_RMSD>
0.6

> <PUBCHEM_CONFORMER_DIVERSEORDER>
1
5
3
4
2

> <PUBCHEM_MMFF94_PARTIAL_CHARGES>
3
1 -0.68
30 0.4
4 0.28

> <PUBCHEM_EFFECTIVE_ROTOR_COUNT>
4

> <PUBCHEM_PHARMACOPHORE_FEATURES>
5
1 1 acceptor
1 1 donor
3 4 7 8 hydrophobe
3 6 9 10 hydrophobe
4 2 3 5 6 hydrophobe

> <PUBCHEM_HEAVY_ATOM_COUNT>
10

> <PUBCHEM_ATOM_DEF_STEREO_COUNT>
0

> <PUBCHEM_ATOM_UDEF_STEREO_COUNT>
0

> <PUBCHEM_BOND_DEF_STEREO_COUNT>
0

> <PUBCHEM_BOND_UDEF_STEREO_COUNT>
0

> <PUBCHEM_ISOTOPIC_ATOM_COUNT>
0

> <PUBCHEM_COMPONENT_COUNT>
1

> <PUBCHEM_CACTVS_TAUTO_COUNT>
1

> <PUBCHEM_CONFORMER_ID>
0001454400000001

> <PUBCHEM_MMFF94_ENERGY>
14.8021

> <PUBCHEM_FEATURE_SELFOVERLAP>
25.431

> <PUBCHEM_SHAPE_FINGERPRINT>
10857977 72 18187079598448396165
12162725 195 18059851757850299097
124424 183 18271517585782514477
12932764 1 18335692849580049503
14144814 61 18409444774009452683
14325111 11 17821445750952897295
14390081 3 14117794730465953007
15775835 57 18114185207157624667
170605 34 18199743816464216032
177051 138 18113899381495386467
20279233 1 12468355773546195605
20281407 28 17385721400551993431
20339313 130 17346330297138918116
21028194 46 16200431373029573399
23402539 116 11023828332203467578
3248919 1 18340760473140126511
581208 293 16950277421005057802

> <PUBCHEM_SHAPE_MULTIPOLES>
199.93
6.43
1.26
1.07
1.36
0.18
0.01
-0.02
-0.8
0.23
-0.44
-0.28
-0.1
-0.01

> <PUBCHEM_SHAPE_SELFOVERLAP>
360.923

> <PUBCHEM_SHAPE_VOLUME>
130.5

> <PUBCHEM_COORDINATE_TYPE>
2
5
10

$$$$
