83553
  -OEChem-11232108523D

 26 26  0     0  0  0  0  0  0999 V2000
   -0.6994   -1.3267    0.1019 O   0  0  0  0  0  0  0  0  0  0  0  0
   -1.4756    0.9114   -0.0389 O   0  0  0  0  0  0  0  0  0  0  0  0
    1.1198    0.6134    0.9988 O   0  0  0  0  0  0  0  0  0  0  0  0
   -0.5724   -0.0674   -0.5657 C   0  0  0  0  0  0  0  0  0  0  0  0
    0.8186    0.4586   -0.2986 C   0  0  0  0  0  0  0  0  0  0  0  0
    0.2459   -2.2878   -0.3505 C   0  0  0  0  0  0  0  0  0  0  0  0
   -2.8358    0.5416   -0.2234 C   0  0  0  0  0  0  0  0  0  0  0  0
    1.8230    0.8052   -1.1272 C   0  0  0  0  0  0  0  0  0  0  0  0
    2.8705    1.2231   -0.2721 C   0  0  0  0  0  0  0  0  0  0  0  0
    0.0359   -3.5809    0.4082 C   0  0  0  0  0  0  0  0  0  0  0  0
   -3.7236    1.6218    0.3569 C   0  0  0  0  0  0  0  0  0  0  0  0
    2.3932    1.0877    1.0108 C   0  0  0  0  0  0  0  0  0  0  0  0
   -0.7459   -0.1875   -1.6424 H   0  0  0  0  0  0  0  0  0  0  0  0
    0.1080   -2.4624   -1.4234 H   0  0  0  0  0  0  0  0  0  0  0  0
    1.2757   -1.9653   -0.1710 H   0  0  0  0  0  0  0  0  0  0  0  0
   -3.0444    0.4252   -1.2927 H   0  0  0  0  0  0  0  0  0  0  0  0
   -3.0422   -0.4067    0.2844 H   0  0  0  0  0  0  0  0  0  0  0  0
    1.8286    0.7713   -2.2069 H   0  0  0  0  0  0  0  0  0  0  0  0
    3.8508    1.5783   -0.5553 H   0  0  0  0  0  0  0  0  0  0  0  0
    0.7422   -4.3479    0.0783 H   0  0  0  0  0  0  0  0  0  0  0  0
    0.1640   -3.4218    1.4841 H   0  0  0  0  0  0  0  0  0  0  0  0
   -0.9833   -3.9531    0.2608 H   0  0  0  0  0  0  0  0  0  0  0  0
   -4.7802    1.3698    0.2301 H   0  0  0  0  0  0  0  0  0  0  0  0
   -3.5182    1.7577    1.4238 H   0  0  0  0  0  0  0  0  0  0  0  0
   -3.5290    2.5833   -0.1296 H   0  0  0  0  0  0  0  0  0  0  0  0
    2.8127    1.2756    1.9884 H   0  0  0  0  0  0  0  0  0  0  0  0
  1  4  1  0  0  0  0
  1  6  1  0  0  0  0
  2  4  1  0  0  0  0
  2  7  1  0  0  0  0
  3  5  1  0  0  0  0
  3 12  1  0  0  0  0
  4  5  1  0  0  0  0
  4 13  1  0  0  0  0
  5  8  2  0  0  0  0
  6 10  1  0  0  0  0
  6 14  1  0  0  0  0
  6 15  1  0  0  0  0
  7 11  1  0  0  0  0
  7 16  1  0  0  0  0
  7 17  1  0  0  0  0
  8  9  1  0  0  0  0
  8 18  1  0  0  0  0
  9 12  2  0  0  0  0
  9 19  1  0  0  0  0
 10 20  1  0  0  0  0
 10 21  1  0  0  0  0
 10 22  1  0  0  0  0
 11 23  1  0  0  0  0
 11 24  1  0  0  0  0
 11 25  1  0  0  0  0
 12 26  1  0  0  0  0
M  END
> <PUBCHEM_COMPOUND_CID>
83553

> <PUBCHEM_CONFORMER_RMSD>
0.6

> <PUBCHEM_CONFORMER_DIVERSEORDER>
1
24
12
26
8
14
25
4
5
21
3
11
27
18
23
28
20
31
10
16
9
29
22
30
13
19
7
17
15
6
2

> <PUBCHEM_MMFF94_PARTIAL_CHARGES>
13
1 -0.56
12 -0.01
18 0.15
19 0.15
2 -0.56
26 0.15
3 -0.28
4 0.74
5 -0.04
6 0.28
7 0.28
8 -0.15
9 -0.15

> <PUBCHEM_EFFECTIVE_ROTOR_COUNT>
5

> <PUBCHEM_PHARMACOPHORE_FEATURES>
4
1 1 acceptor
1 2 acceptor
1 3 acceptor
5 3 5 8 9 12 rings

> <PUBCHEM_HEAVY_ATOM_COUNT>
12

> <PUBCHEM_ATOM_DEF_STEREO_COUNT>
0

> <PUBCHEM_ATOM_UDEF_STEREO_COUNT>
0

> <PUBCHEM_BOND_DEF_STEREO_COUNT>
0

> <PUBCHEM_BOND_UDEF_STEREO_COUNT>
0

> <PUBCHEM_ISOTOPIC_ATOM_COUNT>
0

> <PUBCHEM_COMPONENT_COUNT>
1

> <PUBCHEM_CACTVS_TAUTO_COUNT>
1

> <PUBCHEM_CONFORMER_ID>
0001466100000001

> <PUBCHEM_MMFF94_ENERGY>
13.0581

> <PUBCHEM_FEATURE_SELFOVERLAP>
20.341

> <PUBCHEM_SHAPE_FINGERPRINT>
1 1 18338232652720897695
10465860 228 18195252105253800609
12532896 13 18341610464136819047
13380537 58 18266465497499000836
15906896 17 18197775720261724111
16945 1 18049725414529697894
18410436 195 17476070225153254391
19021347 4 18409729603371855003
201361 129 18126859209167103601
20711985 344 17979070818819791142
21040471 1 18411135882990956836
21524375 3 18272364269986822085
21930827 45 18198341951706977840
23559900 14 18272096037407414204
276578 36 18411703157929082857
305870 269 18339918208541692433
528862 383 18191861236741270715
7364860 26 18126002655196281191
81228 2 17907007731560707715
81539 233 18261671476657312173

> <PUBCHEM_SHAPE_MULTIPOLES>
229.35
4.46
2.98
0.95
3.24
4.53
0.03
-4.26
0.4
0.17
0.44
-0.46
-0.19
-0.08

> <PUBCHEM_SHAPE_SELFOVERLAP>
455.434

> <PUBCHEM_SHAPE_VOLUME>
137.9

> <PUBCHEM_COORDINATE_TYPE>
2
5
10

$$$$
