83653
  -OEChem-11232109023D

 17 17  0     0  0  0  0  0  0999 V2000
    0.5389   -1.7567    0.0002 S   0  0  0  0  0  0  0  0  0  0  0  0
   -2.1140    1.0923    0.0005 O   0  0  0  0  0  0  0  0  0  0  0  0
    0.8477    0.7938   -0.0002 C   0  0  0  0  0  0  0  0  0  0  0  0
   -0.1274   -0.1792   -0.0002 C   0  0  0  0  0  0  0  0  0  0  0  0
    2.1592    0.2369   -0.0001 C   0  0  0  0  0  0  0  0  0  0  0  0
    0.5795    2.2523    0.0000 C   0  0  0  0  0  0  0  0  0  0  0  0
   -1.5481   -0.0347   -0.0001 C   0  0  0  0  0  0  0  0  0  0  0  0
    2.1364   -1.1404    0.0002 C   0  0  0  0  0  0  0  0  0  0  0  0
   -2.4723   -1.2644   -0.0002 C   0  0  0  0  0  0  0  0  0  0  0  0
    3.0772    0.8110   -0.0001 H   0  0  0  0  0  0  0  0  0  0  0  0
    1.5110    2.8288   -0.0002 H   0  0  0  0  0  0  0  0  0  0  0  0
    0.0133    2.5446   -0.8904 H   0  0  0  0  0  0  0  0  0  0  0  0
    0.0138    2.5445    0.8907 H   0  0  0  0  0  0  0  0  0  0  0  0
    2.9816   -1.8141    0.0004 H   0  0  0  0  0  0  0  0  0  0  0  0
   -2.3091   -1.8605    0.9013 H   0  0  0  0  0  0  0  0  0  0  0  0
   -2.3086   -1.8608   -0.9016 H   0  0  0  0  0  0  0  0  0  0  0  0
   -3.5142   -0.9287   -0.0006 H   0  0  0  0  0  0  0  0  0  0  0  0
  1  4  1  0  0  0  0
  1  8  1  0  0  0  0
  2  7  2  0  0  0  0
  3  4  2  0  0  0  0
  3  5  1  0  0  0  0
  3  6  1  0  0  0  0
  4  7  1  0  0  0  0
  5  8  2  0  0  0  0
  5 10  1  0  0  0  0
  6 11  1  0  0  0  0
  6 12  1  0  0  0  0
  6 13  1  0  0  0  0
  7  9  1  0  0  0  0
  8 14  1  0  0  0  0
  9 15  1  0  0  0  0
  9 16  1  0  0  0  0
  9 17  1  0  0  0  0
M  END
> <PUBCHEM_COMPOUND_CID>
83653

> <PUBCHEM_CONFORMER_RMSD>
0.4

> <PUBCHEM_CONFORMER_DIVERSEORDER>
1
4
3
2
5

> <PUBCHEM_MMFF94_PARTIAL_CHARGES>
11
1 -0.08
10 0.15
14 0.15
2 -0.57
3 -0.18
4 -0.05
5 -0.15
6 0.18
7 0.59
8 -0.11
9 0.06

> <PUBCHEM_EFFECTIVE_ROTOR_COUNT>
1

> <PUBCHEM_PHARMACOPHORE_FEATURES>
2
1 2 acceptor
5 1 3 4 5 8 rings

> <PUBCHEM_HEAVY_ATOM_COUNT>
9

> <PUBCHEM_ATOM_DEF_STEREO_COUNT>
0

> <PUBCHEM_ATOM_UDEF_STEREO_COUNT>
0

> <PUBCHEM_BOND_DEF_STEREO_COUNT>
0

> <PUBCHEM_BOND_UDEF_STEREO_COUNT>
0

> <PUBCHEM_ISOTOPIC_ATOM_COUNT>
0

> <PUBCHEM_COMPONENT_COUNT>
1

> <PUBCHEM_CACTVS_TAUTO_COUNT>
2

> <PUBCHEM_CONFORMER_ID>
000146C500000001

> <PUBCHEM_MMFF94_ENERGY>
14.6527

> <PUBCHEM_FEATURE_SELFOVERLAP>
10.148

> <PUBCHEM_SHAPE_FINGERPRINT>
12897270 3 18265330780092968615
16945 1 18266741474748871206
18185500 45 18339643334697568194
193761 8 17618222149487266190
20653091 64 18336265733850868280
21040471 1 18266740358278705958
23552423 10 18261117326823056246
241688 4 18338237055130746626
2748010 2 18411697669034627678
29004967 10 18410294687907892986
5084963 1 18130229379498406771
66348 1 18267866086123158139

> <PUBCHEM_SHAPE_MULTIPOLES>
183.2
3.12
2.09
0.62
1.17
0.52
0
-0.63
0
-0.32
0
-0.02
-0.03
0

> <PUBCHEM_SHAPE_SELFOVERLAP>
362.592

> <PUBCHEM_SHAPE_VOLUME>
111

> <PUBCHEM_COORDINATE_TYPE>
2
5
10

$$$$
