84398
  -OEChem-11232108493D

 31 31  0     0  0  0  0  0  0999 V2000
   -2.7575   -0.6194   -0.0275 C   0  0  0  0  0  0  0  0  0  0  0  0
   -1.4975    0.1783   -0.0175 C   0  0  0  0  0  0  0  0  0  0  0  0
   -0.2651   -0.4646    0.0993 C   0  0  0  0  0  0  0  0  0  0  0  0
    0.9129    0.2823    0.1087 C   0  0  0  0  0  0  0  0  0  0  0  0
   -2.9728   -1.3967    1.2851 C   0  0  0  0  0  0  0  0  0  0  0  0
   -2.8337   -1.5854   -1.2250 C   0  0  0  0  0  0  0  0  0  0  0  0
   -1.5519    1.5679   -0.1251 C   0  0  0  0  0  0  0  0  0  0  0  0
    0.8586    1.6719    0.0010 C   0  0  0  0  0  0  0  0  0  0  0  0
   -0.3737    2.3147   -0.1159 C   0  0  0  0  0  0  0  0  0  0  0  0
    2.1004    2.5043    0.0073 C   0  0  0  0  0  0  0  0  0  0  0  0
    2.1847   -0.4180    0.2322 C   0  0  0  0  0  0  0  0  0  0  0  0
    2.4378   -1.6762   -0.1895 C   0  0  0  0  0  0  0  0  0  0  0  0
    3.7578   -2.3590   -0.0332 C   0  0  0  0  0  0  0  0  0  0  0  0
   -3.6104    0.0660   -0.1262 H   0  0  0  0  0  0  0  0  0  0  0  0
   -0.2439   -1.5461    0.2031 H   0  0  0  0  0  0  0  0  0  0  0  0
   -2.2105   -2.1688    1.4349 H   0  0  0  0  0  0  0  0  0  0  0  0
   -3.9505   -1.8907    1.2821 H   0  0  0  0  0  0  0  0  0  0  0  0
   -2.9402   -0.7211    2.1470 H   0  0  0  0  0  0  0  0  0  0  0  0
   -2.7035   -1.0452   -2.1694 H   0  0  0  0  0  0  0  0  0  0  0  0
   -3.8087   -2.0838   -1.2544 H   0  0  0  0  0  0  0  0  0  0  0  0
   -2.0636   -2.3628   -1.1745 H   0  0  0  0  0  0  0  0  0  0  0  0
   -2.5034    2.0847   -0.2166 H   0  0  0  0  0  0  0  0  0  0  0  0
   -0.4350    3.3965   -0.1997 H   0  0  0  0  0  0  0  0  0  0  0  0
    2.8032    2.1650   -0.7611 H   0  0  0  0  0  0  0  0  0  0  0  0
    1.8826    3.5564   -0.2086 H   0  0  0  0  0  0  0  0  0  0  0  0
    2.5828    2.4675    0.9895 H   0  0  0  0  0  0  0  0  0  0  0  0
    2.9909    0.1227    0.7215 H   0  0  0  0  0  0  0  0  0  0  0  0
    1.6741   -2.2579   -0.6983 H   0  0  0  0  0  0  0  0  0  0  0  0
    3.6361   -3.2742    0.5541 H   0  0  0  0  0  0  0  0  0  0  0  0
    4.1554   -2.6305   -1.0158 H   0  0  0  0  0  0  0  0  0  0  0  0
    4.4951   -1.7258    0.4703 H   0  0  0  0  0  0  0  0  0  0  0  0
  1  2  1  0  0  0  0
  1  5  1  0  0  0  0
  1  6  1  0  0  0  0
  1 14  1  0  0  0  0
  2  3  2  0  0  0  0
  2  7  1  0  0  0  0
  3  4  1  0  0  0  0
  3 15  1  0  0  0  0
  4  8  2  0  0  0  0
  4 11  1  0  0  0  0
  5 16  1  0  0  0  0
  5 17  1  0  0  0  0
  5 18  1  0  0  0  0
  6 19  1  0  0  0  0
  6 20  1  0  0  0  0
  6 21  1  0  0  0  0
  7  9  2  0  0  0  0
  7 22  1  0  0  0  0
  8  9  1  0  0  0  0
  8 10  1  0  0  0  0
  9 23  1  0  0  0  0
 10 24  1  0  0  0  0
 10 25  1  0  0  0  0
 10 26  1  0  0  0  0
 11 12  2  3  0  0  0
 11 27  1  0  0  0  0
 12 13  1  0  0  0  0
 12 28  1  0  0  0  0
 13 29  1  0  0  0  0
 13 30  1  0  0  0  0
 13 31  1  0  0  0  0
M  END
> <PUBCHEM_COMPOUND_CID>
84398

> <PUBCHEM_CONFORMER_RMSD>
0.6

> <PUBCHEM_CONFORMER_DIVERSEORDER>
1
2
3

> <PUBCHEM_MMFF94_PARTIAL_CHARGES>
16
1 0.14
10 0.14
11 -0.18
12 -0.29
13 0.14
15 0.15
2 -0.14
22 0.15
23 0.15
27 0.15
28 0.15
3 -0.15
4 0.03
7 -0.15
8 -0.14
9 -0.15

> <PUBCHEM_EFFECTIVE_ROTOR_COUNT>
2

> <PUBCHEM_PHARMACOPHORE_FEATURES>
3
1 13 hydrophobe
3 1 5 6 hydrophobe
6 2 3 4 7 8 9 rings

> <PUBCHEM_HEAVY_ATOM_COUNT>
13

> <PUBCHEM_ATOM_DEF_STEREO_COUNT>
0

> <PUBCHEM_ATOM_UDEF_STEREO_COUNT>
0

> <PUBCHEM_BOND_DEF_STEREO_COUNT>
0

> <PUBCHEM_BOND_UDEF_STEREO_COUNT>
1

> <PUBCHEM_ISOTOPIC_ATOM_COUNT>
0

> <PUBCHEM_COMPONENT_COUNT>
1

> <PUBCHEM_CACTVS_TAUTO_COUNT>
1

> <PUBCHEM_CONFORMER_ID>
000149AE00000001

> <PUBCHEM_MMFF94_ENERGY>
32.9369

> <PUBCHEM_FEATURE_SELFOVERLAP>
15.223

> <PUBCHEM_SHAPE_FINGERPRINT>
11680986 33 18339632361304495096
12553582 1 18412268315617539854
13380535 76 17974842088551212498
15279307 12 17769381861180733311
15279308 51 18343580737703159533
15669948 3 17975974255084767914
16945 1 18050004690583652513
193761 8 18410573963740574284
20645476 183 17172379680201079325
20645477 70 18264193885318105967
20711985 344 18117826703685141769
20871998 184 18055635018893449822
20871998 22 18410013247164235738
20871999 31 18117837698727534340
21501502 16 18411985753792284221
22213442 358 18339922619768381158
22445834 79 18055926626119757971
23114952 82 18041547139541719237
2334 1 18409448119641646937
23552423 10 18335421283066757108
23557571 272 17983582910235562726
23559900 14 17836075681786548706
23598291 2 18059303174610014423
2748010 2 18409156714679481509
3071541 250 18337684065443913292
5493415 88 18409728418139800754
6338986 31 18341032073813210247
7364860 26 18341331197111051440
81228 2 18050000000373721136
8809292 202 18191308182413552978

> <PUBCHEM_SHAPE_MULTIPOLES>
267.53
5.24
2.97
0.87
0.88
0.9
0.02
-4.47
0.05
1.84
-0.16
-0.69
-0.36
0.09

> <PUBCHEM_SHAPE_SELFOVERLAP>
542.16

> <PUBCHEM_SHAPE_VOLUME>
154.2

> <PUBCHEM_COORDINATE_TYPE>
2
5
10

$$$$
