84467
  -OEChem-11232109443D

 34 33  0     0  0  0  0  0  0999 V2000
   -2.2715    1.4034   -0.0004 O   0  0  0  0  0  0  0  0  0  0  0  0
    1.4900   -0.5333   -0.0249 C   0  0  0  0  0  0  0  0  0  0  0  0
    2.7156    0.3821   -0.0174 C   0  0  0  0  0  0  0  0  0  0  0  0
    0.1923    0.2744    0.0066 C   0  0  0  0  0  0  0  0  0  0  0  0
    4.0139   -0.4265   -0.0153 C   0  0  0  0  0  0  0  0  0  0  0  0
   -1.0280   -0.6382    0.0326 C   0  0  0  0  0  0  0  0  0  0  0  0
    5.2381    0.4877    0.0257 C   0  0  0  0  0  0  0  0  0  0  0  0
   -2.3077    0.1734    0.0226 C   0  0  0  0  0  0  0  0  0  0  0  0
   -3.6109   -0.6089    0.0110 C   0  0  0  0  0  0  0  0  0  0  0  0
   -4.8363    0.3001   -0.0280 C   0  0  0  0  0  0  0  0  0  0  0  0
    6.5312   -0.3114   -0.0061 C   0  0  0  0  0  0  0  0  0  0  0  0
   -6.1267   -0.5027   -0.0063 C   0  0  0  0  0  0  0  0  0  0  0  0
    1.5089   -1.1665   -0.9203 H   0  0  0  0  0  0  0  0  0  0  0  0
    1.5262   -1.2012    0.8445 H   0  0  0  0  0  0  0  0  0  0  0  0
    2.6910    1.0380   -0.8961 H   0  0  0  0  0  0  0  0  0  0  0  0
    2.6853    1.0276    0.8690 H   0  0  0  0  0  0  0  0  0  0  0  0
    0.1867    0.9264    0.8893 H   0  0  0  0  0  0  0  0  0  0  0  0
    0.1521    0.9302   -0.8725 H   0  0  0  0  0  0  0  0  0  0  0  0
    4.0294   -1.0977    0.8521 H   0  0  0  0  0  0  0  0  0  0  0  0
    4.0538   -1.0568   -0.9121 H   0  0  0  0  0  0  0  0  0  0  0  0
   -1.0214   -1.2581    0.9354 H   0  0  0  0  0  0  0  0  0  0  0  0
   -1.0314   -1.2914   -0.8466 H   0  0  0  0  0  0  0  0  0  0  0  0
    5.2197    1.1736   -0.8293 H   0  0  0  0  0  0  0  0  0  0  0  0
    5.2151    1.1007    0.9341 H   0  0  0  0  0  0  0  0  0  0  0  0
   -3.6348   -1.2322    0.9118 H   0  0  0  0  0  0  0  0  0  0  0  0
   -3.6040   -1.2638   -0.8673 H   0  0  0  0  0  0  0  0  0  0  0  0
   -4.8112    0.9228   -0.9303 H   0  0  0  0  0  0  0  0  0  0  0  0
   -4.8229    0.9838    0.8292 H   0  0  0  0  0  0  0  0  0  0  0  0
    6.6004   -0.9100   -0.9201 H   0  0  0  0  0  0  0  0  0  0  0  0
    6.5962   -0.9868    0.8530 H   0  0  0  0  0  0  0  0  0  0  0  0
    7.3936    0.3618    0.0250 H   0  0  0  0  0  0  0  0  0  0  0  0
   -6.1864   -1.1724   -0.8702 H   0  0  0  0  0  0  0  0  0  0  0  0
   -6.1972   -1.1076    0.9033 H   0  0  0  0  0  0  0  0  0  0  0  0
   -6.9910    0.1681   -0.0361 H   0  0  0  0  0  0  0  0  0  0  0  0
  1  8  2  0  0  0  0
  2  3  1  0  0  0  0
  2  4  1  0  0  0  0
  2 13  1  0  0  0  0
  2 14  1  0  0  0  0
  3  5  1  0  0  0  0
  3 15  1  0  0  0  0
  3 16  1  0  0  0  0
  4  6  1  0  0  0  0
  4 17  1  0  0  0  0
  4 18  1  0  0  0  0
  5  7  1  0  0  0  0
  5 19  1  0  0  0  0
  5 20  1  0  0  0  0
  6  8  1  0  0  0  0
  6 21  1  0  0  0  0
  6 22  1  0  0  0  0
  7 11  1  0  0  0  0
  7 23  1  0  0  0  0
  7 24  1  0  0  0  0
  8  9  1  0  0  0  0
  9 10  1  0  0  0  0
  9 25  1  0  0  0  0
  9 26  1  0  0  0  0
 10 12  1  0  0  0  0
 10 27  1  0  0  0  0
 10 28  1  0  0  0  0
 11 29  1  0  0  0  0
 11 30  1  0  0  0  0
 11 31  1  0  0  0  0
 12 32  1  0  0  0  0
 12 33  1  0  0  0  0
 12 34  1  0  0  0  0
M  END
> <PUBCHEM_COMPOUND_CID>
84467

> <PUBCHEM_CONFORMER_RMSD>
0.8

> <PUBCHEM_CONFORMER_DIVERSEORDER>
1
414
323
365
108
142
2
106
344
238
71
367
39
284
375
412
3
55
122
63
229
357
7
234
311
384
92
417
165
413
410
255
28
180
19
379
360
310
13
37
6
383
198
104
308
46
157
202
48
371
61
396
245
361
340
402
321
207
374
58
247
236
304
51
325
85
127
14
276
377
56
362
191
307
231
262
387
133
10
178
87
206
156
221
324
22
403
113
15
368
102
226
4
394
378
364
185
120
38
9
312
172
23
137
12
418
303
171
139
53
380
41
282
101
218
281
313
32
168
20
397
392
199
300
35
110
373
209
36
258
136
64
213
369
11
330
186
130
294
26
163
267
273
250
161
356
107
359
50
193
411
416
16
167
385
296
260
21
29
24
194
125
111
270
309
81
328
388
96
17
42
215
68
299
152
60
343
195
181
339
177
211
203
75
406
261
57
291
386
257
398
27
400
230
83
118
408
91
228
49
117
259
243
326
370
223
205
390
363
302
103
40
5
116
169
33
407
376
266
318
100
372
188
155
349
82
126
97
233
18
80
342
401
94
393
201
225
160
331
237
65
121
272
391
283
200
99
89
240
352
286
134
253
335
141
105
251
44
277
297
248
34
70
151
174
337
98
399
285
216
196
212
8
149
319
140
79
67
338
183
128
317
204
263
235
306
66
95
404
25
244
214
187
176
242
73
298
135
329
239
295
45
93
254
366
90
293
256
129
76
146
159
227
246
43
114
52
350
210
197
124
278
409
224
345
316
112
123
351
279
292
179
219
415
208
62
173
190
189
47
287
280
269
30
220
348
241
175
131
271
320
395
347
268
158
332
154
138
322
252
336
182
74
147
274
341
54
31
314
78
150
265
148
132
69
405
72
264
275
222
144
109
145
84
334
143
217
289
115
358
301
288
162
119
184
382
77
164
354
153
305
346
88
86
333
315
355
327
170
353
249
59
381
192
232
290
166
389

> <PUBCHEM_MMFF94_PARTIAL_CHARGES>
4
1 -0.57
6 0.06
8 0.45
9 0.06

> <PUBCHEM_EFFECTIVE_ROTOR_COUNT>
8

> <PUBCHEM_PHARMACOPHORE_FEATURES>
5
1 1 acceptor
1 11 hydrophobe
1 12 hydrophobe
3 2 4 6 hydrophobe
3 3 5 7 hydrophobe

> <PUBCHEM_HEAVY_ATOM_COUNT>
12

> <PUBCHEM_ATOM_DEF_STEREO_COUNT>
0

> <PUBCHEM_ATOM_UDEF_STEREO_COUNT>
0

> <PUBCHEM_BOND_DEF_STEREO_COUNT>
0

> <PUBCHEM_BOND_UDEF_STEREO_COUNT>
0

> <PUBCHEM_ISOTOPIC_ATOM_COUNT>
0

> <PUBCHEM_COMPONENT_COUNT>
1

> <PUBCHEM_CACTVS_TAUTO_COUNT>
3

> <PUBCHEM_CONFORMER_ID>
000149F300000001

> <PUBCHEM_MMFF94_ENERGY>
-1.7114

> <PUBCHEM_FEATURE_SELFOVERLAP>
25.386

> <PUBCHEM_SHAPE_FINGERPRINT>
10968037 39 18407760352513756495
12091667 2 18259704497937432091
12815109 37 18410011043798520439
13533116 47 17095793339982181712
14123238 8 18131633382974933910
1420 363 18411142441337556346
14251718 22 18260547826907163538
14251764 46 16988843873971079798
17834072 33 18333732455129443380
17834076 25 18334294275121519142
187816 3 17240483611167670225
20621476 38 18339079286209023806
20645477 70 17845660236124962366
20719005 15 18410856560198939264
20767249 213 18186803599481115332
23402539 116 18411132558807673679
23521765 1 18341895194640685126
23557571 272 18271530809865850516
3545911 37 18407760339460185874
366044 4 18334295374781217003
42788 4 18410855464607790880
8209 1 18408040715262690559

> <PUBCHEM_SHAPE_MULTIPOLES>
241.09
15.96
0.91
0.61
5.89
0.12
0
-1.19
-0.05
-0.29
0
0.02
-0.01
0.01

> <PUBCHEM_SHAPE_SELFOVERLAP>
434.123

> <PUBCHEM_SHAPE_VOLUME>
155.5

> <PUBCHEM_COORDINATE_TYPE>
2
5
10

$$$$
