84614
  -OEChem-11232109183D

 35 36  0     0  0  0  0  0  0999 V2000
    5.7069   -0.1865    0.1531 O   0  0  0  0  0  0  0  0  0  0  0  0
   -3.1126   -2.3457    0.4406 O   0  0  0  0  0  0  0  0  0  0  0  0
   -1.3928   -1.8359   -1.0020 O   0  0  0  0  0  0  0  0  0  0  0  0
   -0.5903    0.7598   -0.5475 N   0  0  0  0  0  0  0  0  0  0  0  0
   -1.9601    0.9641   -0.3093 C   0  0  0  0  0  0  0  0  0  0  0  0
   -2.8313   -0.1159   -0.1915 C   0  0  0  0  0  0  0  0  0  0  0  0
    1.6101    0.4269    0.4124 C   0  0  0  0  0  0  0  0  0  0  0  0
   -2.4364    2.2677   -0.1921 C   0  0  0  0  0  0  0  0  0  0  0  0
    2.3729    0.3113    1.5743 C   0  0  0  0  0  0  0  0  0  0  0  0
    2.2240    0.3359   -0.8369 C   0  0  0  0  0  0  0  0  0  0  0  0
   -4.1875    0.1090    0.0451 C   0  0  0  0  0  0  0  0  0  0  0  0
    0.1747    0.6426    0.5031 C   0  0  0  0  0  0  0  0  0  0  0  0
    4.3636    0.0137    0.2380 C   0  0  0  0  0  0  0  0  0  0  0  0
    3.7496    0.1049    1.4872 C   0  0  0  0  0  0  0  0  0  0  0  0
    3.6007    0.1293   -0.9241 C   0  0  0  0  0  0  0  0  0  0  0  0
   -3.7925    2.4925    0.0447 C   0  0  0  0  0  0  0  0  0  0  0  0
   -4.6680    1.4132    0.1632 C   0  0  0  0  0  0  0  0  0  0  0  0
   -2.3573   -1.4885   -0.3104 C   0  0  0  0  0  0  0  0  0  0  0  0
    6.2698   -0.2701   -1.1555 C   0  0  0  0  0  0  0  0  0  0  0  0
   -2.7433   -3.7284    0.4075 C   0  0  0  0  0  0  0  0  0  0  0  0
   -1.7625    3.1154   -0.2839 H   0  0  0  0  0  0  0  0  0  0  0  0
    1.9090    0.3802    2.5549 H   0  0  0  0  0  0  0  0  0  0  0  0
    1.6538    0.4220   -1.7581 H   0  0  0  0  0  0  0  0  0  0  0  0
   -4.8989   -0.7084    0.1282 H   0  0  0  0  0  0  0  0  0  0  0  0
   -0.2576    0.7044    1.5198 H   0  0  0  0  0  0  0  0  0  0  0  0
    4.3387    0.0159    2.3958 H   0  0  0  0  0  0  0  0  0  0  0  0
    4.0129    0.0684   -1.9256 H   0  0  0  0  0  0  0  0  0  0  0  0
   -4.1670    3.5079    0.1357 H   0  0  0  0  0  0  0  0  0  0  0  0
   -5.7245    1.5889    0.3442 H   0  0  0  0  0  0  0  0  0  0  0  0
    6.1468    0.6682   -1.7070 H   0  0  0  0  0  0  0  0  0  0  0  0
    5.8778   -1.1308   -1.7079 H   0  0  0  0  0  0  0  0  0  0  0  0
    7.3461   -0.4310   -1.0347 H   0  0  0  0  0  0  0  0  0  0  0  0
   -1.7254   -3.8559    0.7879 H   0  0  0  0  0  0  0  0  0  0  0  0
   -2.8264   -4.1164   -0.6120 H   0  0  0  0  0  0  0  0  0  0  0  0
   -3.4322   -4.2805    1.0521 H   0  0  0  0  0  0  0  0  0  0  0  0
  1 13  1  0  0  0  0
  1 19  1  0  0  0  0
  2 18  1  0  0  0  0
  2 20  1  0  0  0  0
  3 18  2  0  0  0  0
  4  5  1  0  0  0  0
  4 12  2  0  0  0  0
  5  6  1  0  0  0  0
  5  8  2  0  0  0  0
  6 11  2  0  0  0  0
  6 18  1  0  0  0  0
  7  9  2  0  0  0  0
  7 10  1  0  0  0  0
  7 12  1  0  0  0  0
  8 16  1  0  0  0  0
  8 21  1  0  0  0  0
  9 14  1  0  0  0  0
  9 22  1  0  0  0  0
 10 15  2  0  0  0  0
 10 23  1  0  0  0  0
 11 17  1  0  0  0  0
 11 24  1  0  0  0  0
 12 25  1  0  0  0  0
 13 14  2  0  0  0  0
 13 15  1  0  0  0  0
 14 26  1  0  0  0  0
 15 27  1  0  0  0  0
 16 17  2  0  0  0  0
 16 28  1  0  0  0  0
 17 29  1  0  0  0  0
 19 30  1  0  0  0  0
 19 31  1  0  0  0  0
 19 32  1  0  0  0  0
 20 33  1  0  0  0  0
 20 34  1  0  0  0  0
 20 35  1  0  0  0  0
M  END
> <PUBCHEM_COMPOUND_CID>
84614

> <PUBCHEM_CONFORMER_RMSD>
0.8

> <PUBCHEM_CONFORMER_DIVERSEORDER>
1
7
4
8
5
3
6
2

> <PUBCHEM_MMFF94_PARTIAL_CHARGES>
29
1 -0.36
10 -0.15
11 -0.15
12 0.3
13 0.08
14 -0.15
15 -0.15
16 -0.15
17 -0.15
18 0.63
19 0.28
2 -0.43
20 0.28
21 0.15
22 0.15
23 0.15
24 0.15
25 0.06
26 0.15
27 0.15
28 0.15
29 0.15
3 -0.57
4 -0.63
5 0.18
6 0.09
7 0.09
8 -0.15
9 -0.15

> <PUBCHEM_EFFECTIVE_ROTOR_COUNT>
5

> <PUBCHEM_PHARMACOPHORE_FEATURES>
5
1 1 acceptor
1 3 acceptor
1 4 acceptor
6 5 6 8 11 16 17 rings
6 7 9 10 13 14 15 rings

> <PUBCHEM_HEAVY_ATOM_COUNT>
20

> <PUBCHEM_ATOM_DEF_STEREO_COUNT>
0

> <PUBCHEM_ATOM_UDEF_STEREO_COUNT>
0

> <PUBCHEM_BOND_DEF_STEREO_COUNT>
0

> <PUBCHEM_BOND_UDEF_STEREO_COUNT>
0

> <PUBCHEM_ISOTOPIC_ATOM_COUNT>
0

> <PUBCHEM_COMPONENT_COUNT>
1

> <PUBCHEM_CACTVS_TAUTO_COUNT>
1

> <PUBCHEM_CONFORMER_ID>
00014A8600000001

> <PUBCHEM_MMFF94_ENERGY>
69.4288

> <PUBCHEM_FEATURE_SELFOVERLAP>
25.378

> <PUBCHEM_SHAPE_FINGERPRINT>
10366900 7 18059563681276609433
10616163 171 18408603686111271330
107951 10 18410578344865770319
11405975 8 18342170085933938256
11545043 162 18202283636753070570
11796584 16 18341897347390491550
12166972 35 13254496670194654945
12236239 1 17748828492812132460
12390115 104 18127979607474398481
12500047 106 18342170038198427285
12616971 3 17240193319023819696
12821665 9 18117850013100794772
13140716 1 18267866275777024081
13167823 11 18186518796157944986
13760787 19 18261109647748331922
14251757 5 18411985745297308328
14386348 63 17632860823950497260
15042514 8 18337393859384505627
15242439 84 17846776278638553512
15250474 111 18188195560002142898
15375358 24 17560795515877193884
15537594 2 17603585214369473218
17804303 29 18341047501683806025
17844677 252 18341055194155083432
200 152 15936406732267802420
20279233 1 17489869340831773124
20645477 56 18411699842341236133
20645477 70 16415198932429004540
20681677 155 18409166589041169864
21033648 29 17274526664258948264
21065201 7 18341323457695905506
22224240 67 18342746170620258265
2297311 6 18342744000575096269
23175994 123 17060338526324073456
23402539 116 18186520999613467300
23557571 272 18272937094260357132
23559900 14 18272932713651872592
23598288 3 18339645667202277751
23728640 28 18408322207498710267
2838139 119 15051460349999737497
312423 11 18042692886444794413
4214541 1 18411699880937796084
474 4 17168998957309580572
4921388 177 18409168826508121271
5104073 3 18341889744849602224
5265222 85 18200040672277834062
5364581 5 17983555667095039808
5385378 56 17979359664772979657
542803 24 17894352151146529068
58051976 100 18409165523878633436
59755656 520 18341326692012066077
602551 16 18410851083910006274
90127 26 17846490461555298072
9709674 26 18272370871246178087

> <PUBCHEM_SHAPE_MULTIPOLES>
389
11.97
2.61
1.11
14.01
2.48
-0.19
-0.93
1.12
-5.47
-0.16
1.33
0.03
0.31

> <PUBCHEM_SHAPE_SELFOVERLAP>
831.438

> <PUBCHEM_SHAPE_VOLUME>
216.2

> <PUBCHEM_COORDINATE_TYPE>
2
5
10

$$$$
