85053
  -OEChem-11232109003D

 14 14  0     0  0  0  0  0  0999 V2000
    0.7763   -1.4420   -0.0803 S   0  0  0  0  0  0  0  0  0  0  0  0
    0.2357    1.0687    0.2147 N   0  0  0  0  0  0  0  0  0  0  0  0
   -1.7251   -0.4180    0.4631 C   0  0  0  0  0  0  0  0  0  0  0  0
   -0.2940   -0.1344    0.2192 C   0  0  0  0  0  0  0  0  0  0  0  0
   -2.6455    0.2859   -0.5392 C   0  0  0  0  0  0  0  0  0  0  0  0
    2.0646   -0.3203   -0.2330 C   0  0  0  0  0  0  0  0  0  0  0  0
    1.5880    0.9601   -0.0444 C   0  0  0  0  0  0  0  0  0  0  0  0
   -1.9385   -1.4931    0.4334 H   0  0  0  0  0  0  0  0  0  0  0  0
   -1.9828   -0.0792    1.4739 H   0  0  0  0  0  0  0  0  0  0  0  0
   -2.5220    1.3732   -0.4937 H   0  0  0  0  0  0  0  0  0  0  0  0
   -3.6921    0.0522   -0.3200 H   0  0  0  0  0  0  0  0  0  0  0  0
   -2.4283   -0.0366   -1.5632 H   0  0  0  0  0  0  0  0  0  0  0  0
    3.0748   -0.6395   -0.4455 H   0  0  0  0  0  0  0  0  0  0  0  0
    2.1904    1.8574   -0.0864 H   0  0  0  0  0  0  0  0  0  0  0  0
  1  4  1  0  0  0  0
  1  6  1  0  0  0  0
  2  4  2  0  0  0  0
  2  7  1  0  0  0  0
  3  4  1  0  0  0  0
  3  5  1  0  0  0  0
  3  8  1  0  0  0  0
  3  9  1  0  0  0  0
  5 10  1  0  0  0  0
  5 11  1  0  0  0  0
  5 12  1  0  0  0  0
  6  7  2  0  0  0  0
  6 13  1  0  0  0  0
  7 14  1  0  0  0  0
M  END
> <PUBCHEM_COMPOUND_CID>
85053

> <PUBCHEM_CONFORMER_RMSD>
0.4

> <PUBCHEM_CONFORMER_DIVERSEORDER>
1
3
2
4

> <PUBCHEM_MMFF94_PARTIAL_CHARGES>
8
1 -0.08
13 0.15
14 0.15
2 -0.57
3 0.18
4 0.2
6 -0.11
7 0.08

> <PUBCHEM_EFFECTIVE_ROTOR_COUNT>
1

> <PUBCHEM_PHARMACOPHORE_FEATURES>
3
1 2 acceptor
1 5 hydrophobe
5 1 2 4 6 7 rings

> <PUBCHEM_HEAVY_ATOM_COUNT>
7

> <PUBCHEM_ATOM_DEF_STEREO_COUNT>
0

> <PUBCHEM_ATOM_UDEF_STEREO_COUNT>
0

> <PUBCHEM_BOND_DEF_STEREO_COUNT>
0

> <PUBCHEM_BOND_UDEF_STEREO_COUNT>
0

> <PUBCHEM_ISOTOPIC_ATOM_COUNT>
0

> <PUBCHEM_COMPONENT_COUNT>
1

> <PUBCHEM_CACTVS_TAUTO_COUNT>
2

> <PUBCHEM_CONFORMER_ID>
00014C3D00000001

> <PUBCHEM_MMFF94_ENERGY>
1.7309

> <PUBCHEM_FEATURE_SELFOVERLAP>
15.223

> <PUBCHEM_SHAPE_FINGERPRINT>
14390081 3 18335135410396911253
20096714 4 18339365287215445122
21040471 1 18194684988970520882
23552423 10 18119260466900697494
29004967 10 18410581673174657138
5460574 1 9079121050692846107

> <PUBCHEM_SHAPE_MULTIPOLES>
142.93
3.15
1.28
0.71
1.57
0.18
-0.02
-0.23
-0.49
-0.48
0
0.14
0.03
0.14

> <PUBCHEM_SHAPE_SELFOVERLAP>
270.959

> <PUBCHEM_SHAPE_VOLUME>
90.1

> <PUBCHEM_COORDINATE_TYPE>
2
5
10

$$$$
