85224
  -OEChem-11232109153D

 22 22  0     0  0  0  0  0  0999 V2000
    0.5428   -1.4413    0.2498 N   0  0  0  0  0  0  0  0  0  0  0  0
    1.9955    0.9055   -0.2487 N   0  0  0  0  0  0  0  0  0  0  0  0
   -1.4762   -0.1800    0.6619 C   0  0  0  0  0  0  0  0  0  0  0  0
   -2.3610   -0.2492   -0.5834 C   0  0  0  0  0  0  0  0  0  0  0  0
   -0.0117   -0.2223    0.3082 C   0  0  0  0  0  0  0  0  0  0  0  0
    0.6856    0.9308    0.0675 C   0  0  0  0  0  0  0  0  0  0  0  0
   -3.8366   -0.2364   -0.2173 C   0  0  0  0  0  0  0  0  0  0  0  0
    0.0424    2.2734    0.1398 C   0  0  0  0  0  0  0  0  0  0  0  0
    1.8527   -1.4666   -0.0666 C   0  0  0  0  0  0  0  0  0  0  0  0
    2.5663   -0.3139   -0.3112 C   0  0  0  0  0  0  0  0  0  0  0  0
   -1.6978   -1.0413    1.3065 H   0  0  0  0  0  0  0  0  0  0  0  0
   -1.7183    0.7008    1.2664 H   0  0  0  0  0  0  0  0  0  0  0  0
   -2.1522    0.5909   -1.2551 H   0  0  0  0  0  0  0  0  0  0  0  0
   -2.1410   -1.1635   -1.1483 H   0  0  0  0  0  0  0  0  0  0  0  0
   -4.0906   -1.0898    0.4195 H   0  0  0  0  0  0  0  0  0  0  0  0
   -4.0998    0.6822    0.3166 H   0  0  0  0  0  0  0  0  0  0  0  0
   -4.4518   -0.2923   -1.1209 H   0  0  0  0  0  0  0  0  0  0  0  0
   -0.2941    2.4894    1.1585 H   0  0  0  0  0  0  0  0  0  0  0  0
    0.7571    3.0566   -0.1374 H   0  0  0  0  0  0  0  0  0  0  0  0
   -0.8015    2.3503   -0.5510 H   0  0  0  0  0  0  0  0  0  0  0  0
    2.3120   -2.4461   -0.1172 H   0  0  0  0  0  0  0  0  0  0  0  0
    3.6188   -0.3351   -0.5652 H   0  0  0  0  0  0  0  0  0  0  0  0
  1  5  2  0  0  0  0
  1  9  1  0  0  0  0
  2  6  2  0  0  0  0
  2 10  1  0  0  0  0
  3  4  1  0  0  0  0
  3  5  1  0  0  0  0
  3 11  1  0  0  0  0
  3 12  1  0  0  0  0
  4  7  1  0  0  0  0
  4 13  1  0  0  0  0
  4 14  1  0  0  0  0
  5  6  1  0  0  0  0
  6  8  1  0  0  0  0
  7 15  1  0  0  0  0
  7 16  1  0  0  0  0
  7 17  1  0  0  0  0
  8 18  1  0  0  0  0
  8 19  1  0  0  0  0
  8 20  1  0  0  0  0
  9 10  2  0  0  0  0
  9 21  1  0  0  0  0
 10 22  1  0  0  0  0
M  END
> <PUBCHEM_COMPOUND_CID>
85224

> <PUBCHEM_CONFORMER_RMSD>
0.4

> <PUBCHEM_CONFORMER_DIVERSEORDER>
4
9
8
6
7
2
5
3
1

> <PUBCHEM_MMFF94_PARTIAL_CHARGES>
10
1 -0.62
10 0.16
2 -0.62
21 0.15
22 0.15
3 0.14
5 0.17
6 0.17
8 0.14
9 0.16

> <PUBCHEM_EFFECTIVE_ROTOR_COUNT>
2

> <PUBCHEM_PHARMACOPHORE_FEATURES>
4
1 1 acceptor
1 2 acceptor
1 7 hydrophobe
6 1 2 5 6 9 10 rings

> <PUBCHEM_HEAVY_ATOM_COUNT>
10

> <PUBCHEM_ATOM_DEF_STEREO_COUNT>
0

> <PUBCHEM_ATOM_UDEF_STEREO_COUNT>
0

> <PUBCHEM_BOND_DEF_STEREO_COUNT>
0

> <PUBCHEM_BOND_UDEF_STEREO_COUNT>
0

> <PUBCHEM_ISOTOPIC_ATOM_COUNT>
0

> <PUBCHEM_COMPONENT_COUNT>
1

> <PUBCHEM_CACTVS_TAUTO_COUNT>
2

> <PUBCHEM_CONFORMER_ID>
00014CE800000004

> <PUBCHEM_MMFF94_ENERGY>
19.5364

> <PUBCHEM_FEATURE_SELFOVERLAP>
20.301

> <PUBCHEM_SHAPE_FINGERPRINT>
11206711 2 18191320285947755108
12897270 3 18408886230697881783
14128692 85 17988920110932088631
15477762 27 18341609360720796007
16945 1 18336559256453456586
20201158 50 18260829289141592051
21040471 1 17977105983087885056
23402655 69 18410567375935391245
23552423 10 18117568318579279762
2748010 2 17978245064407445714
29004967 10 18408891741008962930
528886 8 18411134770452002378

> <PUBCHEM_SHAPE_MULTIPOLES>
195.83
4.4
1.72
0.72
3.84
0.79
-0.01
-1.11
0.81
-0.73
-0.07
0.14
-0.02
-0.06

> <PUBCHEM_SHAPE_SELFOVERLAP>
392.59

> <PUBCHEM_SHAPE_VOLUME>
115.2

> <PUBCHEM_COORDINATE_TYPE>
2
5
10

$$$$
