85521
  -OEChem-11232109463D

 29 28  0     0  0  0  0  0  0999 V2000
   -3.4894   -0.8574   -0.6796 S   0  0  0  0  0  0  0  0  0  0  0  0
    1.6388   -1.0371   -0.2132 O   0  0  0  0  0  0  0  0  0  0  0  0
    0.6043    0.9488    0.6512 O   0  0  0  0  0  0  0  0  0  0  0  0
    0.4985   -0.4637    0.4394 C   0  0  0  0  0  0  0  0  0  0  0  0
   -0.7544   -0.8573   -0.3598 C   0  0  0  0  0  0  0  0  0  0  0  0
   -2.0408   -0.3693    0.3014 C   0  0  0  0  0  0  0  0  0  0  0  0
    2.8572   -0.7299    0.4521 C   0  0  0  0  0  0  0  0  0  0  0  0
    0.6738    1.7293   -0.5341 C   0  0  0  0  0  0  0  0  0  0  0  0
    4.0045   -1.3707   -0.2994 C   0  0  0  0  0  0  0  0  0  0  0  0
    0.7818    3.1913   -0.1562 C   0  0  0  0  0  0  0  0  0  0  0  0
   -4.7744   -0.1841    0.3983 C   0  0  0  0  0  0  0  0  0  0  0  0
    0.4258   -0.9214    1.4336 H   0  0  0  0  0  0  0  0  0  0  0  0
   -0.6806   -0.4844   -1.3886 H   0  0  0  0  0  0  0  0  0  0  0  0
   -0.7713   -1.9521   -0.4509 H   0  0  0  0  0  0  0  0  0  0  0  0
   -2.0383    0.7210    0.3940 H   0  0  0  0  0  0  0  0  0  0  0  0
   -2.1296   -0.8010    1.3038 H   0  0  0  0  0  0  0  0  0  0  0  0
    3.0181    0.3522    0.4907 H   0  0  0  0  0  0  0  0  0  0  0  0
    2.8239   -1.1186    1.4760 H   0  0  0  0  0  0  0  0  0  0  0  0
    1.5419    1.4364   -1.1333 H   0  0  0  0  0  0  0  0  0  0  0  0
   -0.2299    1.6035   -1.1367 H   0  0  0  0  0  0  0  0  0  0  0  0
    4.9594   -1.1595    0.1901 H   0  0  0  0  0  0  0  0  0  0  0  0
    3.8696   -2.4558   -0.3572 H   0  0  0  0  0  0  0  0  0  0  0  0
    4.0456   -0.9998   -1.3289 H   0  0  0  0  0  0  0  0  0  0  0  0
    0.8349    3.8232   -1.0472 H   0  0  0  0  0  0  0  0  0  0  0  0
   -0.0802    3.4992    0.4448 H   0  0  0  0  0  0  0  0  0  0  0  0
    1.6741    3.3661    0.4540 H   0  0  0  0  0  0  0  0  0  0  0  0
   -4.7331   -0.6572    1.3828 H   0  0  0  0  0  0  0  0  0  0  0  0
   -5.7549   -0.3842   -0.0417 H   0  0  0  0  0  0  0  0  0  0  0  0
   -4.6556    0.8974    0.5038 H   0  0  0  0  0  0  0  0  0  0  0  0
  1  6  1  0  0  0  0
  1 11  1  0  0  0  0
  2  4  1  0  0  0  0
  2  7  1  0  0  0  0
  3  4  1  0  0  0  0
  3  8  1  0  0  0  0
  4  5  1  0  0  0  0
  4 12  1  0  0  0  0
  5  6  1  0  0  0  0
  5 13  1  0  0  0  0
  5 14  1  0  0  0  0
  6 15  1  0  0  0  0
  6 16  1  0  0  0  0
  7  9  1  0  0  0  0
  7 17  1  0  0  0  0
  7 18  1  0  0  0  0
  8 10  1  0  0  0  0
  8 19  1  0  0  0  0
  8 20  1  0  0  0  0
  9 21  1  0  0  0  0
  9 22  1  0  0  0  0
  9 23  1  0  0  0  0
 10 24  1  0  0  0  0
 10 25  1  0  0  0  0
 10 26  1  0  0  0  0
 11 27  1  0  0  0  0
 11 28  1  0  0  0  0
 11 29  1  0  0  0  0
M  END
> <PUBCHEM_COMPOUND_CID>
85521

> <PUBCHEM_CONFORMER_RMSD>
0.6

> <PUBCHEM_CONFORMER_DIVERSEORDER>
1
99
81
118
75
109
114
82
72
102
57
23
87
27
107
58
100
60
52
39
83
80
117
89
98
101
105
95
112
110
116
54
56
115
67
36
49
79
45
55
14
88
93
11
68
84
86
7
92
22
106
16
85
61
108
28
43
97
91
111
70
8
35
119
40
21
17
77
31
3
78
104
74
5
65
59
25
103
62
15
44
90
13
26
66
47
46
96
2
76
69
9
24
48
94
18
30
4
51
113
71
6
42
20
50
37
73
32
33
19
41
63
53
29
34
10
64
38
12

> <PUBCHEM_MMFF94_PARTIAL_CHARGES>
8
1 -0.46
11 0.23
2 -0.56
3 -0.56
4 0.56
6 0.23
7 0.28
8 0.28

> <PUBCHEM_EFFECTIVE_ROTOR_COUNT>
7

> <PUBCHEM_PHARMACOPHORE_FEATURES>
3
1 11 hydrophobe
1 2 acceptor
1 3 acceptor

> <PUBCHEM_HEAVY_ATOM_COUNT>
11

> <PUBCHEM_ATOM_DEF_STEREO_COUNT>
0

> <PUBCHEM_ATOM_UDEF_STEREO_COUNT>
0

> <PUBCHEM_BOND_DEF_STEREO_COUNT>
0

> <PUBCHEM_BOND_UDEF_STEREO_COUNT>
0

> <PUBCHEM_ISOTOPIC_ATOM_COUNT>
0

> <PUBCHEM_COMPONENT_COUNT>
1

> <PUBCHEM_CACTVS_TAUTO_COUNT>
1

> <PUBCHEM_CONFORMER_ID>
00014E1100000001

> <PUBCHEM_MMFF94_ENERGY>
16.557

> <PUBCHEM_FEATURE_SELFOVERLAP>
15.255

> <PUBCHEM_SHAPE_FINGERPRINT>
12932764 1 17241309379092391979
14648413 74 18118685654189368179
17041 50 18335126592929078181
18186145 218 17895463826464403299
18410436 195 18413669114895243064
187816 3 17967820414329129490
20339313 130 18410576205844715547
20671657 1 18267305524504005877
20671657 53 18411703175108757095
20711985 327 18342181054873996190
20711985 344 18120368757657618762
20871998 22 18270684160379854134
21041028 32 18410579466005065641
21524375 3 17396687053227982865
23402539 116 18341886342755708550
23532345 12 18131071545903403963
23557571 272 18270407066649385894
23598291 2 18200304554498859399
305870 269 17906168812615411204
3071541 12 18265898153525328452
3250762 1 17755593985278836082
58734987 36 18408603669099590062
68521 5 18264209114981714388
7364860 26 18268427021689743657
81228 2 18120947113632460968
9939556 21 18200026395268640351

> <PUBCHEM_SHAPE_MULTIPOLES>
218.49
7.16
2.4
0.8
5.16
3.07
0.03
-4.06
-0.02
-1.94
0.32
0.17
-0.02
-0.15

> <PUBCHEM_SHAPE_SELFOVERLAP>
377.157

> <PUBCHEM_SHAPE_VOLUME>
147

> <PUBCHEM_COORDINATE_TYPE>
2
5
10

$$$$
