85724
  -OEChem-11232109213D

 32 34  0     1  0  0  0  0  0999 V2000
    2.2773    0.6587    0.1104 O   0  0  0  0  0  0  0  0  0  0  0  0
    2.6259   -1.6084    0.3858 O   0  0  0  0  0  0  0  0  0  0  0  0
   -1.1957   -0.7179    0.4856 C   0  0  2  0  0  0  0  0  0  0  0  0
   -1.9594    0.6305    0.5050 C   0  0  1  0  0  0  0  0  0  0  0  0
    0.0912   -0.3701   -0.2910 C   0  0  1  0  0  0  0  0  0  0  0  0
   -1.0219    1.5711   -0.2833 C   0  0  2  0  0  0  0  0  0  0  0  0
   -0.4129    0.6387   -1.3334 C   0  0  0  0  0  0  0  0  0  0  0  0
    0.9575    0.5294    0.6190 C   0  0  2  0  0  0  0  0  0  0  0  0
    0.2151    1.8794    0.5871 C   0  0  0  0  0  0  0  0  0  0  0  0
   -2.1276   -1.7192   -0.1979 C   0  0  0  0  0  0  0  0  0  0  0  0
   -3.3110    0.3546   -0.1562 C   0  0  0  0  0  0  0  0  0  0  0  0
   -3.5167   -1.1416    0.0275 C   0  0  0  0  0  0  0  0  0  0  0  0
    3.0076   -0.4963    0.0473 C   0  0  0  0  0  0  0  0  0  0  0  0
    4.3706   -0.2090   -0.5058 C   0  0  0  0  0  0  0  0  0  0  0  0
   -0.9752   -1.0581    1.5045 H   0  0  0  0  0  0  0  0  0  0  0  0
   -2.1121    0.9796    1.5332 H   0  0  0  0  0  0  0  0  0  0  0  0
    0.5770   -1.2345   -0.7439 H   0  0  0  0  0  0  0  0  0  0  0  0
   -1.5114    2.4650   -0.6752 H   0  0  0  0  0  0  0  0  0  0  0  0
   -1.1431    0.2256   -2.0342 H   0  0  0  0  0  0  0  0  0  0  0  0
    0.3974    1.1061   -1.9036 H   0  0  0  0  0  0  0  0  0  0  0  0
    1.0168    0.1529    1.6478 H   0  0  0  0  0  0  0  0  0  0  0  0
    0.8306    2.6619    0.1289 H   0  0  0  0  0  0  0  0  0  0  0  0
   -0.0707    2.2097    1.5911 H   0  0  0  0  0  0  0  0  0  0  0  0
   -2.0305   -2.7207    0.2329 H   0  0  0  0  0  0  0  0  0  0  0  0
   -1.9206   -1.8050   -1.2704 H   0  0  0  0  0  0  0  0  0  0  0  0
   -3.3019    0.6086   -1.2222 H   0  0  0  0  0  0  0  0  0  0  0  0
   -4.1144    0.9341    0.3094 H   0  0  0  0  0  0  0  0  0  0  0  0
   -3.8556   -1.3554    1.0482 H   0  0  0  0  0  0  0  0  0  0  0  0
   -4.2539   -1.5482   -0.6705 H   0  0  0  0  0  0  0  0  0  0  0  0
    4.8948    0.4932    0.1472 H   0  0  0  0  0  0  0  0  0  0  0  0
    4.2816    0.1973   -1.5164 H   0  0  0  0  0  0  0  0  0  0  0  0
    4.9462   -1.1379   -0.5529 H   0  0  0  0  0  0  0  0  0  0  0  0
  1  8  1  0  0  0  0
  1 13  1  0  0  0  0
  2 13  2  0  0  0  0
  3  4  1  0  0  0  0
  3  5  1  0  0  0  0
  3 10  1  0  0  0  0
  3 15  1  0  0  0  0
  4  6  1  0  0  0  0
  4 11  1  0  0  0  0
  4 16  1  0  0  0  0
  5  7  1  0  0  0  0
  5  8  1  0  0  0  0
  5 17  1  0  0  0  0
  6  7  1  0  0  0  0
  6  9  1  0  0  0  0
  6 18  1  0  0  0  0
  7 19  1  0  0  0  0
  7 20  1  0  0  0  0
  8  9  1  0  0  0  0
  8 21  1  0  0  0  0
  9 22  1  0  0  0  0
  9 23  1  0  0  0  0
 10 12  1  0  0  0  0
 10 24  1  0  0  0  0
 10 25  1  0  0  0  0
 11 12  1  0  0  0  0
 11 26  1  0  0  0  0
 11 27  1  0  0  0  0
 12 28  1  0  0  0  0
 12 29  1  0  0  0  0
 13 14  1  0  0  0  0
 14 30  1  0  0  0  0
 14 31  1  0  0  0  0
 14 32  1  0  0  0  0
M  END
> <PUBCHEM_COMPOUND_CID>
85724

> <PUBCHEM_CONFORMER_RMSD>
0.6

> <PUBCHEM_CONFORMER_DIVERSEORDER>
1
8
15
10
20
14
12
11
4
6
9
19
13
17
18
16
3
7
5
2

> <PUBCHEM_MMFF94_PARTIAL_CHARGES>
5
1 -0.43
13 0.66
14 0.06
2 -0.57
8 0.28

> <PUBCHEM_EFFECTIVE_ROTOR_COUNT>
3.2

> <PUBCHEM_PHARMACOPHORE_FEATURES>
3
1 2 acceptor
5 3 4 10 11 12 rings
7 3 4 5 6 7 8 9 rings

> <PUBCHEM_HEAVY_ATOM_COUNT>
14

> <PUBCHEM_ATOM_DEF_STEREO_COUNT>
0

> <PUBCHEM_ATOM_UDEF_STEREO_COUNT>
5

> <PUBCHEM_BOND_DEF_STEREO_COUNT>
0

> <PUBCHEM_BOND_UDEF_STEREO_COUNT>
0

> <PUBCHEM_ISOTOPIC_ATOM_COUNT>
0

> <PUBCHEM_COMPONENT_COUNT>
1

> <PUBCHEM_CACTVS_TAUTO_COUNT>
1

> <PUBCHEM_CONFORMER_ID>
00014EDC00000001

> <PUBCHEM_MMFF94_ENERGY>
45.6698

> <PUBCHEM_FEATURE_SELFOVERLAP>
15.289

> <PUBCHEM_SHAPE_FINGERPRINT>
11132069 177 18413102870680585954
11769659 78 18341325690820533639
12032990 46 18412830213203142579
12138202 97 18044361743591128245
13024252 1 16805610235189838481
13288520 33 18413112736542309190
13571099 22 18339072817628800463
14128692 85 18261115222162415773
14911166 2 18410003330601811461
14993402 34 17603583054022054631
15309172 13 16559032683797557958
15375462 189 18334579031490265186
16945 1 18409438189951409353
17804303 29 18342744043708865913
17841504 4 18059009622011187657
18186145 218 10737548489188852627
200 152 18334293163141694958
20201158 50 18410293597081366098
20281407 28 18410292514633264258
20653085 51 8718556059238887085
20871998 184 18202283576196078759
20871999 31 17967808358223619239
21028194 46 9439406834649375018
21267235 1 18411147956028325499
21296965 67 18412545435565295473
21501502 16 18265050224028256186
22485316 2 18410570686938425178
23402539 116 17703787008150426437
23463225 33 18411138026074220334
23552423 10 18190742122924784797
23559900 14 18340481180586933962
2748010 2 18193827361374406417
3312278 4 18410295796051653378
369184 2 18341890758008144120
7364860 26 18125441062215538352
83771 10 18410857680784502984

> <PUBCHEM_SHAPE_MULTIPOLES>
276.37
5.96
1.69
0.87
3.96
0.08
-0.14
-2.27
-0.38
-0.44
0.13
0
0.13
0.01

> <PUBCHEM_SHAPE_SELFOVERLAP>
594.578

> <PUBCHEM_SHAPE_VOLUME>
159.2

> <PUBCHEM_COORDINATE_TYPE>
2
5
10

$$$$
