85730
  -OEChem-11232109023D

 16 16  0     1  0  0  0  0  0999 V2000
    0.5725   -1.0960   -0.3024 O   0  0  0  0  0  0  0  0  0  0  0  0
   -1.8019    1.4398   -0.0080 O   0  0  0  0  0  0  0  0  0  0  0  0
   -0.8113   -0.7314   -0.4435 C   0  0  2  0  0  0  0  0  0  0  0  0
   -0.8155    0.7247   -0.0842 C   0  0  0  0  0  0  0  0  0  0  0  0
    1.2512    0.0760    0.0138 C   0  0  0  0  0  0  0  0  0  0  0  0
   -1.6612   -1.5622    0.4954 C   0  0  0  0  0  0  0  0  0  0  0  0
    0.5401    1.1910    0.1650 C   0  0  0  0  0  0  0  0  0  0  0  0
    2.7261   -0.0419    0.1639 C   0  0  0  0  0  0  0  0  0  0  0  0
   -1.1033   -0.8602   -1.4907 H   0  0  0  0  0  0  0  0  0  0  0  0
   -1.3506   -1.4241    1.5373 H   0  0  0  0  0  0  0  0  0  0  0  0
   -2.7186   -1.2912    0.4172 H   0  0  0  0  0  0  0  0  0  0  0  0
   -1.5515   -2.6280    0.2697 H   0  0  0  0  0  0  0  0  0  0  0  0
    0.8557    2.1871    0.4136 H   0  0  0  0  0  0  0  0  0  0  0  0
    2.9713   -0.7560    0.9563 H   0  0  0  0  0  0  0  0  0  0  0  0
    3.1859    0.9182    0.4198 H   0  0  0  0  0  0  0  0  0  0  0  0
    3.1757   -0.3939   -0.7699 H   0  0  0  0  0  0  0  0  0  0  0  0
  1  3  1  0  0  0  0
  1  5  1  0  0  0  0
  2  4  2  0  0  0  0
  3  4  1  0  0  0  0
  3  6  1  0  0  0  0
  3  9  1  0  0  0  0
  4  7  1  0  0  0  0
  5  7  2  0  0  0  0
  5  8  1  0  0  0  0
  6 10  1  0  0  0  0
  6 11  1  0  0  0  0
  6 12  1  0  0  0  0
  7 13  1  0  0  0  0
  8 14  1  0  0  0  0
  8 15  1  0  0  0  0
  8 16  1  0  0  0  0
M  END
> <PUBCHEM_COMPOUND_CID>
85730

> <PUBCHEM_CONFORMER_RMSD>
0.4

> <PUBCHEM_CONFORMER_DIVERSEORDER>
1
2

> <PUBCHEM_MMFF94_PARTIAL_CHARGES>
8
1 -0.36
13 0.15
2 -0.57
3 0.34
4 0.49
5 -0.06
7 -0.14
8 0.14

> <PUBCHEM_EFFECTIVE_ROTOR_COUNT>
0.4

> <PUBCHEM_PHARMACOPHORE_FEATURES>
3
1 1 acceptor
1 2 acceptor
5 1 3 4 5 7 rings

> <PUBCHEM_HEAVY_ATOM_COUNT>
8

> <PUBCHEM_ATOM_DEF_STEREO_COUNT>
0

> <PUBCHEM_ATOM_UDEF_STEREO_COUNT>
1

> <PUBCHEM_BOND_DEF_STEREO_COUNT>
0

> <PUBCHEM_BOND_UDEF_STEREO_COUNT>
0

> <PUBCHEM_ISOTOPIC_ATOM_COUNT>
0

> <PUBCHEM_COMPONENT_COUNT>
1

> <PUBCHEM_CACTVS_TAUTO_COUNT>
5

> <PUBCHEM_CONFORMER_ID>
00014EE200000001

> <PUBCHEM_MMFF94_ENERGY>
6.8547

> <PUBCHEM_FEATURE_SELFOVERLAP>
15.223

> <PUBCHEM_SHAPE_FINGERPRINT>
18185500 45 17405425988619408167
21040471 1 18267023847331535780
23552423 10 18260552212585971374
29004967 10 17829608718482404579

> <PUBCHEM_SHAPE_MULTIPOLES>
152.9
2.75
1.56
0.67
1.36
0.16
0.01
-0.46
0.3
-0.82
0.08
-0.05
-0.07
0.14

> <PUBCHEM_SHAPE_SELFOVERLAP>
310.302

> <PUBCHEM_SHAPE_VOLUME>
91.2

> <PUBCHEM_COORDINATE_TYPE>
2
5
10

$$$$
