85755
  -OEChem-11232108503D

 32 32  0     1  0  0  0  0  0999 V2000
    1.9650    0.1258   -1.0346 O   0  0  0  0  0  0  0  0  0  0  0  0
    0.1525   -0.0607    0.5287 C   0  0  2  0  0  0  0  0  0  0  0  0
    1.6691   -0.0437    0.3526 C   0  0  0  0  0  0  0  0  0  0  0  0
   -0.4786   -1.2387   -0.2201 C   0  0  0  0  0  0  0  0  0  0  0  0
   -0.4666    1.2637    0.0541 C   0  0  0  0  0  0  0  0  0  0  0  0
   -1.9936   -1.2883    0.0013 C   0  0  0  0  0  0  0  0  0  0  0  0
   -2.6639    0.0599   -0.0858 C   0  0  0  0  0  0  0  0  0  0  0  0
   -1.9607    1.2054   -0.0757 C   0  0  0  0  0  0  0  0  0  0  0  0
    2.2883   -1.3593    0.8237 C   0  0  0  0  0  0  0  0  0  0  0  0
    2.2847    1.1372    1.1010 C   0  0  0  0  0  0  0  0  0  0  0  0
   -4.1607    0.0491   -0.1823 C   0  0  0  0  0  0  0  0  0  0  0  0
    3.3648    0.1495   -1.2629 C   0  0  0  0  0  0  0  0  0  0  0  0
   -0.0799   -0.1806    1.5975 H   0  0  0  0  0  0  0  0  0  0  0  0
   -0.0669   -2.1992    0.1060 H   0  0  0  0  0  0  0  0  0  0  0  0
   -0.2796   -1.1559   -1.2966 H   0  0  0  0  0  0  0  0  0  0  0  0
   -0.0634    1.5755   -0.9165 H   0  0  0  0  0  0  0  0  0  0  0  0
   -0.2284    2.0576    0.7718 H   0  0  0  0  0  0  0  0  0  0  0  0
   -2.2022   -1.7144    0.9907 H   0  0  0  0  0  0  0  0  0  0  0  0
   -2.4291   -1.9691   -0.7401 H   0  0  0  0  0  0  0  0  0  0  0  0
   -2.4775    2.1579   -0.1609 H   0  0  0  0  0  0  0  0  0  0  0  0
    3.3646   -1.2729    1.0126 H   0  0  0  0  0  0  0  0  0  0  0  0
    1.8468   -1.6843    1.7730 H   0  0  0  0  0  0  0  0  0  0  0  0
    2.1652   -2.1631    0.0894 H   0  0  0  0  0  0  0  0  0  0  0  0
    3.3662    1.0310    1.2441 H   0  0  0  0  0  0  0  0  0  0  0  0
    1.8616    1.2252    2.1086 H   0  0  0  0  0  0  0  0  0  0  0  0
    2.1285    2.0876    0.5779 H   0  0  0  0  0  0  0  0  0  0  0  0
   -4.4796   -0.4829   -1.0844 H   0  0  0  0  0  0  0  0  0  0  0  0
   -4.5796    1.0600   -0.2255 H   0  0  0  0  0  0  0  0  0  0  0  0
   -4.5927   -0.4535    0.6892 H   0  0  0  0  0  0  0  0  0  0  0  0
    3.4989    0.2612   -2.3448 H   0  0  0  0  0  0  0  0  0  0  0  0
    3.8664   -0.7845   -0.9997 H   0  0  0  0  0  0  0  0  0  0  0  0
    3.8626    1.0128   -0.8154 H   0  0  0  0  0  0  0  0  0  0  0  0
  1  3  1  0  0  0  0
  1 12  1  0  0  0  0
  2  3  1  0  0  0  0
  2  4  1  0  0  0  0
  2  5  1  0  0  0  0
  2 13  1  0  0  0  0
  3  9  1  0  0  0  0
  3 10  1  0  0  0  0
  4  6  1  0  0  0  0
  4 14  1  0  0  0  0
  4 15  1  0  0  0  0
  5  8  1  0  0  0  0
  5 16  1  0  0  0  0
  5 17  1  0  0  0  0
  6  7  1  0  0  0  0
  6 18  1  0  0  0  0
  6 19  1  0  0  0  0
  7  8  2  0  0  0  0
  7 11  1  0  0  0  0
  8 20  1  0  0  0  0
  9 21  1  0  0  0  0
  9 22  1  0  0  0  0
  9 23  1  0  0  0  0
 10 24  1  0  0  0  0
 10 25  1  0  0  0  0
 10 26  1  0  0  0  0
 11 27  1  0  0  0  0
 11 28  1  0  0  0  0
 11 29  1  0  0  0  0
 12 30  1  0  0  0  0
 12 31  1  0  0  0  0
 12 32  1  0  0  0  0
M  END
> <PUBCHEM_COMPOUND_CID>
85755

> <PUBCHEM_CONFORMER_RMSD>
0.6

> <PUBCHEM_CONFORMER_DIVERSEORDER>
1
8
4
2
7
5
6
3

> <PUBCHEM_MMFF94_PARTIAL_CHARGES>
9
1 -0.56
11 0.14
12 0.28
20 0.15
3 0.28
5 0.14
6 0.14
7 -0.28
8 -0.29

> <PUBCHEM_EFFECTIVE_ROTOR_COUNT>
2.8

> <PUBCHEM_PHARMACOPHORE_FEATURES>
3
1 1 acceptor
3 3 9 10 hydrophobe
6 2 4 5 6 7 8 rings

> <PUBCHEM_HEAVY_ATOM_COUNT>
12

> <PUBCHEM_ATOM_DEF_STEREO_COUNT>
0

> <PUBCHEM_ATOM_UDEF_STEREO_COUNT>
1

> <PUBCHEM_BOND_DEF_STEREO_COUNT>
0

> <PUBCHEM_BOND_UDEF_STEREO_COUNT>
0

> <PUBCHEM_ISOTOPIC_ATOM_COUNT>
0

> <PUBCHEM_COMPONENT_COUNT>
1

> <PUBCHEM_CACTVS_TAUTO_COUNT>
1

> <PUBCHEM_CONFORMER_ID>
00014EFB00000001

> <PUBCHEM_MMFF94_ENERGY>
31.2692

> <PUBCHEM_FEATURE_SELFOVERLAP>
15.223

> <PUBCHEM_SHAPE_FINGERPRINT>
12423570 1 12934517419250085410
12897270 3 18411140250819637972
12932764 1 18412541015927883835
13538477 17 17968375740219533235
14144814 61 18411415094751913761
14325111 11 18411693271246611897
14993402 34 18187089459498174709
15219456 202 17774441710696640328
15310529 11 17022617572499011469
15775835 57 18335704931296640177
16945 1 18334572477538826681
170605 34 16443073824019607812
18186145 218 18131348592526401865
18522853 295 18342458110392864035
19026448 4 15626216910502950011
19026448 5 16081080490047265281
20201158 50 17704079481768125766
20523700 14 18259705622549087175
20559304 39 18335975372745201178
20645464 45 17988067984851152122
20645476 183 18040723601253974303
20715346 28 17987239009119064643
21028194 46 18336539417978456291
21293036 1 18411144644624059421
21501502 16 18194968435368907947
23402539 116 18130209502331784141
23463225 33 18262512572724311915
23552423 10 18190459552810463517
23559900 14 18342746239223157452
2748010 2 18124025999651215835
3248919 1 17458056084241641995
369184 2 18341037571571412867
5084963 1 17896313627849421784
528886 8 17749114417353583414
7364860 26 18342168943578106338
8030462 33 18334857207847514123

> <PUBCHEM_SHAPE_MULTIPOLES>
241.09
5.73
1.41
1.01
2.29
0.1
-0.1
-0.13
-0.94
0.01
0.21
-0.98
-0.06
-0.03

> <PUBCHEM_SHAPE_SELFOVERLAP>
476.046

> <PUBCHEM_SHAPE_VOLUME>
144.6

> <PUBCHEM_COORDINATE_TYPE>
2
5
10

$$$$
