85803
  -OEChem-11232109443D

 25 25  0     1  0  0  0  0  0999 V2000
   -1.8494    0.0992   -0.3694 O   0  0  0  0  0  0  0  0  0  0  0  0
   -0.4207   -1.0034    1.0728 O   0  0  0  0  0  0  0  0  0  0  0  0
    0.4181    0.0079   -0.9488 C   0  0  1  0  0  0  0  0  0  0  0  0
    0.9761    1.3938   -0.6187 C   0  0  0  0  0  0  0  0  0  0  0  0
    1.5197   -1.0582   -1.0112 C   0  0  0  0  0  0  0  0  0  0  0  0
    1.8308    1.4033    0.6532 C   0  0  0  0  0  0  0  0  0  0  0  0
    2.6011   -0.8848    0.0154 C   0  0  0  0  0  0  0  0  0  0  0  0
    2.7326    0.2132    0.7713 C   0  0  0  0  0  0  0  0  0  0  0  0
   -0.6396   -0.3701    0.0490 C   0  0  0  0  0  0  0  0  0  0  0  0
   -2.9537   -0.1924    0.4930 C   0  0  0  0  0  0  0  0  0  0  0  0
   -4.2151    0.3914   -0.1066 C   0  0  0  0  0  0  0  0  0  0  0  0
   -0.0625    0.0337   -1.9362 H   0  0  0  0  0  0  0  0  0  0  0  0
    0.1670    2.1270   -0.5147 H   0  0  0  0  0  0  0  0  0  0  0  0
    1.5951    1.7299   -1.4613 H   0  0  0  0  0  0  0  0  0  0  0  0
    1.9965   -1.0227   -1.9990 H   0  0  0  0  0  0  0  0  0  0  0  0
    1.0874   -2.0609   -0.9072 H   0  0  0  0  0  0  0  0  0  0  0  0
    1.1846    1.4396    1.5382 H   0  0  0  0  0  0  0  0  0  0  0  0
    2.4353    2.3177    0.6653 H   0  0  0  0  0  0  0  0  0  0  0  0
    3.3038   -1.7030    0.1446 H   0  0  0  0  0  0  0  0  0  0  0  0
    3.5281    0.2564    1.5095 H   0  0  0  0  0  0  0  0  0  0  0  0
   -3.0603   -1.2780    0.5953 H   0  0  0  0  0  0  0  0  0  0  0  0
   -2.7732    0.2500    1.4791 H   0  0  0  0  0  0  0  0  0  0  0  0
   -5.0813    0.1867    0.5287 H   0  0  0  0  0  0  0  0  0  0  0  0
   -4.1165    1.4747   -0.2320 H   0  0  0  0  0  0  0  0  0  0  0  0
   -4.3989   -0.0281   -1.1013 H   0  0  0  0  0  0  0  0  0  0  0  0
  1  9  1  0  0  0  0
  1 10  1  0  0  0  0
  2  9  2  0  0  0  0
  3  4  1  0  0  0  0
  3  5  1  0  0  0  0
  3  9  1  0  0  0  0
  3 12  1  0  0  0  0
  4  6  1  0  0  0  0
  4 13  1  0  0  0  0
  4 14  1  0  0  0  0
  5  7  1  0  0  0  0
  5 15  1  0  0  0  0
  5 16  1  0  0  0  0
  6  8  1  0  0  0  0
  6 17  1  0  0  0  0
  6 18  1  0  0  0  0
  7  8  2  0  0  0  0
  7 19  1  0  0  0  0
  8 20  1  0  0  0  0
 10 11  1  0  0  0  0
 10 21  1  0  0  0  0
 10 22  1  0  0  0  0
 11 23  1  0  0  0  0
 11 24  1  0  0  0  0
 11 25  1  0  0  0  0
M  END
> <PUBCHEM_COMPOUND_CID>
85803

> <PUBCHEM_CONFORMER_RMSD>
0.6

> <PUBCHEM_CONFORMER_DIVERSEORDER>
1
11
25
13
14
26
15
27
6
2
4
23
16
24
10
5
3
12
22
8
20
21
17
7
19
18
9

> <PUBCHEM_MMFF94_PARTIAL_CHARGES>
11
1 -0.43
10 0.28
19 0.15
2 -0.57
20 0.15
3 0.06
5 0.14
6 0.14
7 -0.29
8 -0.29
9 0.66

> <PUBCHEM_EFFECTIVE_ROTOR_COUNT>
3.8

> <PUBCHEM_PHARMACOPHORE_FEATURES>
2
1 2 acceptor
6 3 4 5 6 7 8 rings

> <PUBCHEM_HEAVY_ATOM_COUNT>
11

> <PUBCHEM_ATOM_DEF_STEREO_COUNT>
0

> <PUBCHEM_ATOM_UDEF_STEREO_COUNT>
1

> <PUBCHEM_BOND_DEF_STEREO_COUNT>
0

> <PUBCHEM_BOND_UDEF_STEREO_COUNT>
0

> <PUBCHEM_ISOTOPIC_ATOM_COUNT>
0

> <PUBCHEM_COMPONENT_COUNT>
1

> <PUBCHEM_CACTVS_TAUTO_COUNT>
1

> <PUBCHEM_CONFORMER_ID>
00014F2B00000001

> <PUBCHEM_MMFF94_ENERGY>
5.3613

> <PUBCHEM_FEATURE_SELFOVERLAP>
10.148

> <PUBCHEM_SHAPE_FINGERPRINT>
10219947 1 18202282489669527446
11062470 55 17132113533136089827
12897270 3 11383841484193725280
12932764 1 18113896061585731079
13922767 16 18409726244854947145
14325111 11 18260551168840047777
14344429 50 17676210190582565908
15775835 57 17203323472333709272
16945 1 18271231768804740788
18186145 218 17988937638952034407
20606313 2 18273211997762732753
20871998 22 17771914831323954358
230 275 17703800248600891041
3248919 1 17274833454105073863
5084963 1 18114187414807770525
522135 26 11602814705781557993
57812782 119 18411417306691777969

> <PUBCHEM_SHAPE_MULTIPOLES>
214.64
5.44
1.27
1.03
6.29
0.24
0.01
0.39
-0.67
-0.85
0.06
-0.24
-0.06
0.29

> <PUBCHEM_SHAPE_SELFOVERLAP>
423.029

> <PUBCHEM_SHAPE_VOLUME>
126.5

> <PUBCHEM_COORDINATE_TYPE>
2
5
10

$$$$
