85833
  -OEChem-11232109483D

 26 26  0     1  0  0  0  0  0999 V2000
    3.9247    0.4166   -0.2630 N   0  0  0  0  0  0  0  0  0  0  0  0
   -0.9326   -0.6622   -0.0108 C   0  0  0  0  0  0  0  0  0  0  0  0
    0.4761   -0.0534   -0.2878 C   0  0  1  0  0  0  0  0  0  0  0  0
    0.4015    1.3926    0.2214 C   0  0  0  0  0  0  0  0  0  0  0  0
   -1.7895    0.5908   -0.0648 C   0  0  0  0  0  0  0  0  0  0  0  0
   -1.0501    1.7009    0.0692 C   0  0  0  0  0  0  0  0  0  0  0  0
   -1.2933   -1.6798   -1.1018 C   0  0  0  0  0  0  0  0  0  0  0  0
   -1.0584   -1.3240    1.3706 C   0  0  0  0  0  0  0  0  0  0  0  0
    1.6680   -0.8098    0.2856 C   0  0  0  0  0  0  0  0  0  0  0  0
   -3.2726    0.5517   -0.1962 C   0  0  0  0  0  0  0  0  0  0  0  0
    2.9261   -0.1233   -0.0225 C   0  0  0  0  0  0  0  0  0  0  0  0
    0.6166    0.0052   -1.3802 H   0  0  0  0  0  0  0  0  0  0  0  0
    1.0114    2.0631   -0.3922 H   0  0  0  0  0  0  0  0  0  0  0  0
    0.6994    1.4953    1.2705 H   0  0  0  0  0  0  0  0  0  0  0  0
   -1.4493    2.7049    0.0977 H   0  0  0  0  0  0  0  0  0  0  0  0
   -0.5749   -2.5069   -1.1199 H   0  0  0  0  0  0  0  0  0  0  0  0
   -2.2874   -2.1099   -0.9343 H   0  0  0  0  0  0  0  0  0  0  0  0
   -1.2981   -1.2202   -2.0969 H   0  0  0  0  0  0  0  0  0  0  0  0
   -2.0898   -1.6395    1.5667 H   0  0  0  0  0  0  0  0  0  0  0  0
   -0.4314   -2.2195    1.4429 H   0  0  0  0  0  0  0  0  0  0  0  0
   -0.7668   -0.6425    2.1779 H   0  0  0  0  0  0  0  0  0  0  0  0
    1.6950   -1.8266   -0.1218 H   0  0  0  0  0  0  0  0  0  0  0  0
    1.5858   -0.9023    1.3743 H   0  0  0  0  0  0  0  0  0  0  0  0
   -3.7066    1.5558   -0.1451 H   0  0  0  0  0  0  0  0  0  0  0  0
   -3.7172   -0.0426    0.6076 H   0  0  0  0  0  0  0  0  0  0  0  0
   -3.5637    0.1140   -1.1558 H   0  0  0  0  0  0  0  0  0  0  0  0
  1 11  3  0  0  0  0
  2  3  1  0  0  0  0
  2  5  1  0  0  0  0
  2  7  1  0  0  0  0
  2  8  1  0  0  0  0
  3  4  1  0  0  0  0
  3  9  1  0  0  0  0
  3 12  1  0  0  0  0
  4  6  1  0  0  0  0
  4 13  1  0  0  0  0
  4 14  1  0  0  0  0
  5  6  2  0  0  0  0
  5 10  1  0  0  0  0
  6 15  1  0  0  0  0
  7 16  1  0  0  0  0
  7 17  1  0  0  0  0
  7 18  1  0  0  0  0
  8 19  1  0  0  0  0
  8 20  1  0  0  0  0
  8 21  1  0  0  0  0
  9 11  1  0  0  0  0
  9 22  1  0  0  0  0
  9 23  1  0  0  0  0
 10 24  1  0  0  0  0
 10 25  1  0  0  0  0
 10 26  1  0  0  0  0
M  END
> <PUBCHEM_COMPOUND_CID>
85833

> <PUBCHEM_CONFORMER_RMSD>
0.4

> <PUBCHEM_CONFORMER_DIVERSEORDER>
4
2
8
3
5
1
6
7

> <PUBCHEM_MMFF94_PARTIAL_CHARGES>
9
1 -0.56
10 0.14
11 0.36
15 0.15
2 0.14
4 0.14
5 -0.28
6 -0.29
9 0.2

> <PUBCHEM_EFFECTIVE_ROTOR_COUNT>
1.6

> <PUBCHEM_PHARMACOPHORE_FEATURES>
3
1 1 acceptor
3 2 7 8 hydrophobe
5 2 3 4 5 6 rings

> <PUBCHEM_HEAVY_ATOM_COUNT>
11

> <PUBCHEM_ATOM_DEF_STEREO_COUNT>
0

> <PUBCHEM_ATOM_UDEF_STEREO_COUNT>
1

> <PUBCHEM_BOND_DEF_STEREO_COUNT>
0

> <PUBCHEM_BOND_UDEF_STEREO_COUNT>
0

> <PUBCHEM_ISOTOPIC_ATOM_COUNT>
0

> <PUBCHEM_COMPONENT_COUNT>
1

> <PUBCHEM_CACTVS_TAUTO_COUNT>
1

> <PUBCHEM_CONFORMER_ID>
00014F4900000004

> <PUBCHEM_MMFF94_ENERGY>
23.6848

> <PUBCHEM_FEATURE_SELFOVERLAP>
15.223

> <PUBCHEM_SHAPE_FINGERPRINT>
12423570 1 17193721579096063235
12932764 1 18202286931198623866
13024252 1 17676489453635216699
14325111 11 18265614286246370757
14993402 34 18272642442286539565
15310529 11 14851872647663928104
16945 1 18271227353409672265
193761 8 17908136930070934021
20653085 51 17913219667103714304
20871998 184 18272657873819424831
23235685 24 18259980453100530097
23402539 116 18130494245789234693
23402655 69 18051674578976110893
23552423 10 18191581067534805868
2748010 2 18123743416198636765
369184 2 16081087073926174960
5084963 1 18045782290864843913
528862 383 17241598416846972555
528886 8 18201991102124575415
6333449 129 18272365386514587204
68250623 7 18125718143761925983

> <PUBCHEM_SHAPE_MULTIPOLES>
221.39
4.51
1.66
0.93
3.66
0.01
0.13
0.7
-0.52
-0.68
-0.01
-0.29
-0.42
-0.08

> <PUBCHEM_SHAPE_SELFOVERLAP>
443.892

> <PUBCHEM_SHAPE_VOLUME>
132

> <PUBCHEM_COORDINATE_TYPE>
2
5
10

$$$$
