85903
  -OEChem-11232109053D

 32 32  0     1  0  0  0  0  0999 V2000
   -3.8584   -1.6843   -0.4724 O   0  0  0  0  0  0  0  0  0  0  0  0
   -0.0567    0.3965    0.0181 C   0  0  2  0  0  0  0  0  0  0  0  0
   -1.3644    0.9753    0.5527 C   0  0  2  0  0  0  0  0  0  0  0  0
    0.4284   -0.7692    0.8857 C   0  0  0  0  0  0  0  0  0  0  0  0
    1.0270    1.4834   -0.0657 C   0  0  0  0  0  0  0  0  0  0  0  0
    1.7110   -1.3857    0.3186 C   0  0  0  0  0  0  0  0  0  0  0  0
   -2.4798   -0.0795    0.6497 C   0  0  0  0  0  0  0  0  0  0  0  0
    2.7213   -0.3660   -0.1439 C   0  0  0  0  0  0  0  0  0  0  0  0
    2.4027    0.9306   -0.2994 C   0  0  0  0  0  0  0  0  0  0  0  0
   -1.8256    2.1301   -0.3410 C   0  0  0  0  0  0  0  0  0  0  0  0
   -2.8072   -0.7489   -0.6797 C   0  0  0  0  0  0  0  0  0  0  0  0
    4.1018   -0.8823   -0.4226 C   0  0  0  0  0  0  0  0  0  0  0  0
   -0.2085    0.0198   -1.0027 H   0  0  0  0  0  0  0  0  0  0  0  0
   -1.2054    1.3750    1.5632 H   0  0  0  0  0  0  0  0  0  0  0  0
   -0.3121   -1.5715    0.9522 H   0  0  0  0  0  0  0  0  0  0  0  0
    0.6136   -0.4188    1.9097 H   0  0  0  0  0  0  0  0  0  0  0  0
    1.0519    2.0822    0.8531 H   0  0  0  0  0  0  0  0  0  0  0  0
    0.8038    2.1659   -0.8941 H   0  0  0  0  0  0  0  0  0  0  0  0
    1.4583   -2.0317   -0.5316 H   0  0  0  0  0  0  0  0  0  0  0  0
    2.1556   -2.0272    1.0889 H   0  0  0  0  0  0  0  0  0  0  0  0
   -3.3933    0.3967    1.0321 H   0  0  0  0  0  0  0  0  0  0  0  0
   -2.2469   -0.8394    1.4041 H   0  0  0  0  0  0  0  0  0  0  0  0
    3.1632    1.6402   -0.6146 H   0  0  0  0  0  0  0  0  0  0  0  0
   -1.8073    1.8670   -1.4037 H   0  0  0  0  0  0  0  0  0  0  0  0
   -1.1942    3.0141   -0.2035 H   0  0  0  0  0  0  0  0  0  0  0  0
   -2.8460    2.4381   -0.0868 H   0  0  0  0  0  0  0  0  0  0  0  0
   -3.1465   -0.0254   -1.4260 H   0  0  0  0  0  0  0  0  0  0  0  0
   -1.9540   -1.3031   -1.0786 H   0  0  0  0  0  0  0  0  0  0  0  0
    4.5351   -1.3170    0.4839 H   0  0  0  0  0  0  0  0  0  0  0  0
    4.7764   -0.0924   -0.7691 H   0  0  0  0  0  0  0  0  0  0  0  0
    4.0678   -1.6551   -1.1974 H   0  0  0  0  0  0  0  0  0  0  0  0
   -4.0485   -2.0956   -1.3328 H   0  0  0  0  0  0  0  0  0  0  0  0
  1 11  1  0  0  0  0
  1 32  1  0  0  0  0
  2  3  1  0  0  0  0
  2  4  1  0  0  0  0
  2  5  1  0  0  0  0
  2 13  1  0  0  0  0
  3  7  1  0  0  0  0
  3 10  1  0  0  0  0
  3 14  1  0  0  0  0
  4  6  1  0  0  0  0
  4 15  1  0  0  0  0
  4 16  1  0  0  0  0
  5  9  1  0  0  0  0
  5 17  1  0  0  0  0
  5 18  1  0  0  0  0
  6  8  1  0  0  0  0
  6 19  1  0  0  0  0
  6 20  1  0  0  0  0
  7 11  1  0  0  0  0
  7 21  1  0  0  0  0
  7 22  1  0  0  0  0
  8  9  2  0  0  0  0
  8 12  1  0  0  0  0
  9 23  1  0  0  0  0
 10 24  1  0  0  0  0
 10 25  1  0  0  0  0
 10 26  1  0  0  0  0
 11 27  1  0  0  0  0
 11 28  1  0  0  0  0
 12 29  1  0  0  0  0
 12 30  1  0  0  0  0
 12 31  1  0  0  0  0
M  END
> <PUBCHEM_COMPOUND_CID>
85903

> <PUBCHEM_CONFORMER_RMSD>
0.6

> <PUBCHEM_CONFORMER_DIVERSEORDER>
7
11
12
13
1
15
6
8
14
10
16
4
5
17
2
3
9

> <PUBCHEM_MMFF94_PARTIAL_CHARGES>
9
1 -0.68
11 0.28
12 0.14
23 0.15
32 0.4
5 0.14
6 0.14
8 -0.28
9 -0.29

> <PUBCHEM_EFFECTIVE_ROTOR_COUNT>
3.8

> <PUBCHEM_PHARMACOPHORE_FEATURES>
4
1 1 acceptor
1 1 donor
1 10 hydrophobe
6 2 4 5 6 8 9 rings

> <PUBCHEM_HEAVY_ATOM_COUNT>
12

> <PUBCHEM_ATOM_DEF_STEREO_COUNT>
0

> <PUBCHEM_ATOM_UDEF_STEREO_COUNT>
2

> <PUBCHEM_BOND_DEF_STEREO_COUNT>
0

> <PUBCHEM_BOND_UDEF_STEREO_COUNT>
0

> <PUBCHEM_ISOTOPIC_ATOM_COUNT>
0

> <PUBCHEM_COMPONENT_COUNT>
1

> <PUBCHEM_CACTVS_TAUTO_COUNT>
1

> <PUBCHEM_CONFORMER_ID>
00014F8F00000007

> <PUBCHEM_MMFF94_ENERGY>
14.1251

> <PUBCHEM_FEATURE_SELFOVERLAP>
20.297

> <PUBCHEM_SHAPE_FINGERPRINT>
10062212 137 18043245739362775570
11206711 2 18187086122118759436
11769659 78 18343018887055741350
11806522 49 18411135878938537068
12897270 3 18333448759385641161
12932764 1 18338240362297989800
14128692 85 18342177764860514592
14325111 11 18335145250325280872
15757776 16 18260541234285598402
15775835 57 18116159865527111876
16945 1 18259991491361646904
19422 9 18201728383111738803
200 152 18413102866438255695
20112054 13 10303826384064914843
20201158 50 18259988179810207202
20645477 70 18268704082052004151
21501502 16 18042682802056651648
23402539 116 18335700478249231558
23402655 69 18188771643521962701
23552423 10 18260832578928311217
2748010 2 18335420162407574260
2871803 45 18335695066052498303
3248919 1 17240492385711989848
449060 23 18343027665889838326
5084963 1 18413111662478790344
57096353 35 18260559934815584358
8030462 33 17894348847841600168

> <PUBCHEM_SHAPE_MULTIPOLES>
241.09
6.07
1.86
0.83
0.79
0.4
0.05
-2.64
-1.39
-0.93
-0.19
-0.2
-0.1
-0.34

> <PUBCHEM_SHAPE_SELFOVERLAP>
468.293

> <PUBCHEM_SHAPE_VOLUME>
145.6

> <PUBCHEM_COORDINATE_TYPE>
2
5
10

$$$$
