86114
  -OEChem-11232108473D

 34 35  0     1  0  0  0  0  0999 V2000
   -2.7038    2.3331   -0.6109 O   0  0  0  0  0  0  0  0  0  0  0  0
   -0.1689   -0.4331    0.1339 C   0  0  2  0  0  0  0  0  0  0  0  0
    1.1143    1.2020    0.9854 C   0  0  2  0  0  0  0  0  0  0  0  0
   -0.8265    0.8651   -0.4441 C   0  0  2  0  0  0  0  0  0  0  0  0
    0.2759    0.0440    1.5288 C   0  0  0  0  0  0  0  0  0  0  0  0
    0.0577    1.9909    0.1848 C   0  0  0  0  0  0  0  0  0  0  0  0
    1.2149   -0.5494   -0.5126 C   0  0  0  0  0  0  0  0  0  0  0  0
    1.9738    0.4368    0.0017 C   0  0  0  0  0  0  0  0  0  0  0  0
   -0.9675   -1.6892    0.1628 C   0  0  0  0  0  0  0  0  0  0  0  0
   -2.3005    1.0742   -0.1048 C   0  0  0  0  0  0  0  0  0  0  0  0
    1.5488   -1.5349   -1.5743 C   0  0  0  0  0  0  0  0  0  0  0  0
    3.3702    0.8431   -0.2880 C   0  0  0  0  0  0  0  0  0  0  0  0
   -0.7900   -2.5582    1.3725 C   0  0  0  0  0  0  0  0  0  0  0  0
   -1.7985   -2.0243   -0.8352 C   0  0  0  0  0  0  0  0  0  0  0  0
    1.6600    1.7696    1.7406 H   0  0  0  0  0  0  0  0  0  0  0  0
   -0.7168    0.9091   -1.5370 H   0  0  0  0  0  0  0  0  0  0  0  0
    0.8942   -0.6661    2.0940 H   0  0  0  0  0  0  0  0  0  0  0  0
   -0.5468    0.3806    2.1705 H   0  0  0  0  0  0  0  0  0  0  0  0
   -0.5188    2.6331    0.8605 H   0  0  0  0  0  0  0  0  0  0  0  0
    0.5090    2.6238   -0.5875 H   0  0  0  0  0  0  0  0  0  0  0  0
   -2.4729    1.0645    0.9760 H   0  0  0  0  0  0  0  0  0  0  0  0
   -2.9439    0.3219   -0.5636 H   0  0  0  0  0  0  0  0  0  0  0  0
    1.4844   -2.5560   -1.1861 H   0  0  0  0  0  0  0  0  0  0  0  0
    2.5612   -1.3962   -1.9630 H   0  0  0  0  0  0  0  0  0  0  0  0
    0.8587   -1.4359   -2.4179 H   0  0  0  0  0  0  0  0  0  0  0  0
    3.8450    0.1998   -1.0333 H   0  0  0  0  0  0  0  0  0  0  0  0
    3.9735    0.7970    0.6240 H   0  0  0  0  0  0  0  0  0  0  0  0
    3.3954    1.8696   -0.6666 H   0  0  0  0  0  0  0  0  0  0  0  0
    0.2605   -2.8368    1.5059 H   0  0  0  0  0  0  0  0  0  0  0  0
   -1.1541   -2.0622    2.2777 H   0  0  0  0  0  0  0  0  0  0  0  0
   -1.3532   -3.4938    1.2778 H   0  0  0  0  0  0  0  0  0  0  0  0
   -2.3768   -2.9418   -0.7986 H   0  0  0  0  0  0  0  0  0  0  0  0
   -1.9063   -1.4140   -1.7252 H   0  0  0  0  0  0  0  0  0  0  0  0
   -3.6402    2.4508   -0.3769 H   0  0  0  0  0  0  0  0  0  0  0  0
  1 10  1  0  0  0  0
  1 34  1  0  0  0  0
  2  4  1  0  0  0  0
  2  5  1  0  0  0  0
  2  7  1  0  0  0  0
  2  9  1  0  0  0  0
  3  5  1  0  0  0  0
  3  6  1  0  0  0  0
  3  8  1  0  0  0  0
  3 15  1  0  0  0  0
  4  6  1  0  0  0  0
  4 10  1  0  0  0  0
  4 16  1  0  0  0  0
  5 17  1  0  0  0  0
  5 18  1  0  0  0  0
  6 19  1  0  0  0  0
  6 20  1  0  0  0  0
  7  8  2  0  0  0  0
  7 11  1  0  0  0  0
  8 12  1  0  0  0  0
  9 13  1  0  0  0  0
  9 14  2  0  0  0  0
 10 21  1  0  0  0  0
 10 22  1  0  0  0  0
 11 23  1  0  0  0  0
 11 24  1  0  0  0  0
 11 25  1  0  0  0  0
 12 26  1  0  0  0  0
 12 27  1  0  0  0  0
 12 28  1  0  0  0  0
 13 29  1  0  0  0  0
 13 30  1  0  0  0  0
 13 31  1  0  0  0  0
 14 32  1  0  0  0  0
 14 33  1  0  0  0  0
M  END
> <PUBCHEM_COMPOUND_CID>
86114

> <PUBCHEM_CONFORMER_RMSD>
0.6

> <PUBCHEM_CONFORMER_DIVERSEORDER>
2
4
7
1
6
3
5
8

> <PUBCHEM_MMFF94_PARTIAL_CHARGES>
14
1 -0.68
10 0.28
11 0.14
12 0.14
13 0.14
14 -0.3
2 0.28
3 0.14
32 0.15
33 0.15
34 0.4
7 -0.28
8 -0.28
9 -0.28

> <PUBCHEM_EFFECTIVE_ROTOR_COUNT>
2.6

> <PUBCHEM_PHARMACOPHORE_FEATURES>
3
1 1 acceptor
1 1 donor
7 2 3 4 5 6 7 8 rings

> <PUBCHEM_HEAVY_ATOM_COUNT>
14

> <PUBCHEM_ATOM_DEF_STEREO_COUNT>
0

> <PUBCHEM_ATOM_UDEF_STEREO_COUNT>
3

> <PUBCHEM_BOND_DEF_STEREO_COUNT>
0

> <PUBCHEM_BOND_UDEF_STEREO_COUNT>
0

> <PUBCHEM_ISOTOPIC_ATOM_COUNT>
0

> <PUBCHEM_COMPONENT_COUNT>
1

> <PUBCHEM_CACTVS_TAUTO_COUNT>
1

> <PUBCHEM_CONFORMER_ID>
0001506200000002

> <PUBCHEM_MMFF94_ENERGY>
51.9739

> <PUBCHEM_FEATURE_SELFOVERLAP>
15.223

> <PUBCHEM_SHAPE_FINGERPRINT>
1 1 17901101923837217501
10702982 57 18040708143534320016
11206711 2 18197501924818095628
12138202 78 17693371561221212948
12138202 97 18410858745962850820
12423570 1 8447578356388391082
12532896 13 18334295336125991419
12716301 132 18337094748475382705
13024252 1 16950851422167742528
13380535 76 18342453695414150364
14817 1 13528854594043343550
15490181 7 18264204708408312159
16945 1 18118673563893275256
17990270 104 17038941209740518539
18534176 82 18336272339710977518
20588541 1 18343869909076875460
20645476 183 17605581893136539798
20711985 344 18263915716964631091
20820808 20 18123187905176311257
21130352 189 17762330722912689550
21501502 16 18412258450114070942
21930827 45 18340473538996342521
22344851 341 18337952260171060043
22802520 49 18342740753553076647
23402539 116 18264475359951684959
23419403 2 17475286397848422475
23559900 14 18272649018667453024
25 1 18200314299262929069
2748010 2 18269286689548226695
3060560 45 18045773499320419421
5084963 1 17199673205414499174
68250623 7 18334845148001327346
81228 2 18192139615347176537

> <PUBCHEM_SHAPE_MULTIPOLES>
282.24
3.3
2.65
1.28
1.54
0.5
0.2
0.24
-0.62
-1.91
-0.28
-0.02
-0.55
0.79

> <PUBCHEM_SHAPE_SELFOVERLAP>
596.991

> <PUBCHEM_SHAPE_VOLUME>
164.9

> <PUBCHEM_COORDINATE_TYPE>
2
5
10

$$$$
