86208
  -OEChem-11232109123D

 30 30  0     1  0  0  0  0  0999 V2000
   -2.3527    1.6400    2.0094 O   0  0  0  0  0  0  0  0  0  0  0  0
   -2.1012   -0.3718   -0.8923 C   0  0  1  0  0  0  0  0  0  0  0  0
   -0.7314   -0.7174   -0.3290 C   0  0  0  0  0  0  0  0  0  0  0  0
   -2.6982    0.9107   -0.2873 C   0  0  0  0  0  0  0  0  0  0  0  0
   -2.0346   -0.2486   -2.4190 C   0  0  0  0  0  0  0  0  0  0  0  0
    0.3040    0.1814   -0.4899 C   0  0  0  0  0  0  0  0  0  0  0  0
   -0.5633   -1.9208    0.3262 C   0  0  0  0  0  0  0  0  0  0  0  0
    1.5602   -0.1367    0.0261 C   0  0  0  0  0  0  0  0  0  0  0  0
    0.6930   -2.2387    0.8423 C   0  0  0  0  0  0  0  0  0  0  0  0
    1.7547   -1.3468    0.6921 C   0  0  0  0  0  0  0  0  0  0  0  0
    2.6680    0.7928   -0.1305 C   0  0  0  0  0  0  0  0  0  0  0  0
   -2.8701    0.8618    1.2156 C   0  0  0  0  0  0  0  0  0  0  0  0
    2.6921    1.7133   -1.3375 C   0  0  0  0  0  0  0  0  0  0  0  0
    3.6795    0.8807    0.7736 C   0  0  0  0  0  0  0  0  0  0  0  0
   -2.7911   -1.1953   -0.6619 H   0  0  0  0  0  0  0  0  0  0  0  0
   -2.0875    1.7892   -0.5266 H   0  0  0  0  0  0  0  0  0  0  0  0
   -3.6936    1.0915   -0.7105 H   0  0  0  0  0  0  0  0  0  0  0  0
   -1.6141   -1.1554   -2.8683 H   0  0  0  0  0  0  0  0  0  0  0  0
   -3.0380   -0.1063   -2.8352 H   0  0  0  0  0  0  0  0  0  0  0  0
   -1.4214    0.5999   -2.7416 H   0  0  0  0  0  0  0  0  0  0  0  0
    0.1318    1.1230   -1.0013 H   0  0  0  0  0  0  0  0  0  0  0  0
   -1.3817   -2.6238    0.4482 H   0  0  0  0  0  0  0  0  0  0  0  0
    0.8452   -3.1834    1.3562 H   0  0  0  0  0  0  0  0  0  0  0  0
    2.7222   -1.6429    1.0883 H   0  0  0  0  0  0  0  0  0  0  0  0
   -3.5298    0.0554    1.5809 H   0  0  0  0  0  0  0  0  0  0  0  0
    1.9421    2.5050   -1.2400 H   0  0  0  0  0  0  0  0  0  0  0  0
    2.5009    1.1501   -2.2575 H   0  0  0  0  0  0  0  0  0  0  0  0
    3.6665    2.1999   -1.4582 H   0  0  0  0  0  0  0  0  0  0  0  0
    4.4906    1.5889    0.6325 H   0  0  0  0  0  0  0  0  0  0  0  0
    3.7207    0.2821    1.6768 H   0  0  0  0  0  0  0  0  0  0  0  0
  1 12  2  0  0  0  0
  2  3  1  0  0  0  0
  2  4  1  0  0  0  0
  2  5  1  0  0  0  0
  2 15  1  0  0  0  0
  3  6  2  0  0  0  0
  3  7  1  0  0  0  0
  4 12  1  0  0  0  0
  4 16  1  0  0  0  0
  4 17  1  0  0  0  0
  5 18  1  0  0  0  0
  5 19  1  0  0  0  0
  5 20  1  0  0  0  0
  6  8  1  0  0  0  0
  6 21  1  0  0  0  0
  7  9  2  0  0  0  0
  7 22  1  0  0  0  0
  8 10  2  0  0  0  0
  8 11  1  0  0  0  0
  9 10  1  0  0  0  0
  9 23  1  0  0  0  0
 10 24  1  0  0  0  0
 11 13  1  0  0  0  0
 11 14  2  0  0  0  0
 12 25  1  0  0  0  0
 13 26  1  0  0  0  0
 13 27  1  0  0  0  0
 13 28  1  0  0  0  0
 14 29  1  0  0  0  0
 14 30  1  0  0  0  0
M  END
> <PUBCHEM_COMPOUND_CID>
86208

> <PUBCHEM_CONFORMER_RMSD>
0.6

> <PUBCHEM_CONFORMER_DIVERSEORDER>
3
41
40
46
22
42
2
52
20
39
26
45
11
54
27
5
17
37
43
14
6
55
49
53
36
35
9
51
47
15
21
18
1
44
31
24
4
48
50
29
56
57
13
12
30
25
10
38
32
33
19
16
34
8
7
23
28

> <PUBCHEM_MMFF94_PARTIAL_CHARGES>
20
1 -0.57
10 -0.15
11 -0.17
12 0.45
13 0.14
14 -0.3
2 0.14
21 0.15
22 0.15
23 0.15
24 0.15
25 0.06
29 0.15
3 -0.14
30 0.15
4 0.06
6 -0.15
7 -0.15
8 0.03
9 -0.15

> <PUBCHEM_EFFECTIVE_ROTOR_COUNT>
4

> <PUBCHEM_PHARMACOPHORE_FEATURES>
3
1 1 acceptor
1 5 hydrophobe
6 3 6 7 8 9 10 rings

> <PUBCHEM_HEAVY_ATOM_COUNT>
14

> <PUBCHEM_ATOM_DEF_STEREO_COUNT>
0

> <PUBCHEM_ATOM_UDEF_STEREO_COUNT>
1

> <PUBCHEM_BOND_DEF_STEREO_COUNT>
0

> <PUBCHEM_BOND_UDEF_STEREO_COUNT>
0

> <PUBCHEM_ISOTOPIC_ATOM_COUNT>
0

> <PUBCHEM_COMPONENT_COUNT>
1

> <PUBCHEM_CACTVS_TAUTO_COUNT>
2

> <PUBCHEM_CONFORMER_ID>
000150C000000003

> <PUBCHEM_MMFF94_ENERGY>
38.538

> <PUBCHEM_FEATURE_SELFOVERLAP>
15.223

> <PUBCHEM_SHAPE_FINGERPRINT>
11471102 22 17530967951453588960
11640471 11 18201149936953535849
124424 183 16154804909152761860
12491281 212 17918281943281801776
13764800 53 18267597959894254427
13898156 1 17772447046222132975
14817 1 14851608735146360635
15309172 13 18040719185768650276
15534591 1 18130797762627525545
15775835 57 18272931583611367297
16945 1 18041269976991708902
17357990 137 17701263512272414171
18186145 218 18408037408048273542
18219364 16 17967243217499435668
19837323 101 17917437565564836983
20510252 161 17903637732848378218
20653085 51 17417828235004359361
20715346 28 17095518444426161743
21061003 4 17537441717136532859
21524375 3 18410292540392739242
22802520 49 14333406722968362075
228727 97 18129082559196210191
23114952 82 14261341479514507050
23236772 104 18201996646985344385
23419403 2 17261293217527938023
23557571 272 16342557613195293993
2748010 2 17609190396025787662
430814 3 18201169741137090043
6992083 37 17338416901268762871
81228 2 17391644654432906538
88987 49 16701436984557124139

> <PUBCHEM_SHAPE_MULTIPOLES>
282.24
5.2
2.02
1.69
1.61
0.95
-0.05
-2.89
-0.99
0.81
-0.13
-1.74
-0.74
-0.77

> <PUBCHEM_SHAPE_SELFOVERLAP>
576.055

> <PUBCHEM_SHAPE_VOLUME>
164.9

> <PUBCHEM_COORDINATE_TYPE>
2
5
10

$$$$
