86278333
  -OEChem-11232109033D

 49 49  0     1  0  0  0  0  0999 V2000
    2.0660   -0.8715    0.1476 O   0  0  0  0  0  0  0  0  0  0  0  0
    2.9574   -0.1197   -1.8412 O   0  0  0  0  0  0  0  0  0  0  0  0
   -0.6027   -1.7064    0.0031 O   0  0  0  0  0  0  0  0  0  0  0  0
    3.0134    1.3108    0.1089 C   0  0  1  0  0  0  0  0  0  0  0  0
    1.7341    1.9925    0.6274 C   0  0  0  0  0  0  0  0  0  0  0  0
    0.7821    2.3995   -0.5030 C   0  0  0  0  0  0  0  0  0  0  0  0
    3.9831    1.0251    1.2683 C   0  0  0  0  0  0  0  0  0  0  0  0
    2.6864    0.0380   -0.6566 C   0  0  0  0  0  0  0  0  0  0  0  0
   -0.4662    3.0909    0.0466 C   0  0  0  0  0  0  0  0  0  0  0  0
    5.2833    0.3804    0.8051 C   0  0  0  0  0  0  0  0  0  0  0  0
    1.7130   -2.1096   -0.4773 C   0  0  2  0  0  0  0  0  0  0  0  0
   -1.4332    3.4614   -1.0667 C   0  0  0  0  0  0  0  0  0  0  0  0
    0.4534   -2.6417    0.1942 C   0  0  0  0  0  0  0  0  0  0  0  0
    2.8739   -3.0820   -0.3333 C   0  0  0  0  0  0  0  0  0  0  0  0
   -1.8018   -2.1423    0.6271 C   0  0  0  0  0  0  0  0  0  0  0  0
   -2.8755   -1.1205    0.3929 C   0  0  0  0  0  0  0  0  0  0  0  0
   -3.0537   -0.0755    1.2993 C   0  0  0  0  0  0  0  0  0  0  0  0
   -3.6954   -1.2160   -0.7315 C   0  0  0  0  0  0  0  0  0  0  0  0
   -4.0520    0.8742    1.0815 C   0  0  0  0  0  0  0  0  0  0  0  0
   -4.6935   -0.2664   -0.9494 C   0  0  0  0  0  0  0  0  0  0  0  0
   -4.8719    0.7787   -0.0429 C   0  0  0  0  0  0  0  0  0  0  0  0
    3.5091    1.9919   -0.5957 H   0  0  0  0  0  0  0  0  0  0  0  0
    1.2058    1.3266    1.3217 H   0  0  0  0  0  0  0  0  0  0  0  0
    2.0110    2.8879    1.1981 H   0  0  0  0  0  0  0  0  0  0  0  0
    1.3007    3.0718   -1.1970 H   0  0  0  0  0  0  0  0  0  0  0  0
    0.4771    1.5152   -1.0745 H   0  0  0  0  0  0  0  0  0  0  0  0
    4.2223    1.9658    1.7791 H   0  0  0  0  0  0  0  0  0  0  0  0
    3.5111    0.3717    2.0122 H   0  0  0  0  0  0  0  0  0  0  0  0
   -0.1798    3.9974    0.5922 H   0  0  0  0  0  0  0  0  0  0  0  0
   -0.9747    2.4309    0.7586 H   0  0  0  0  0  0  0  0  0  0  0  0
    5.1137   -0.6157    0.3855 H   0  0  0  0  0  0  0  0  0  0  0  0
    5.7781    0.9961    0.0472 H   0  0  0  0  0  0  0  0  0  0  0  0
    5.9688    0.2706    1.6515 H   0  0  0  0  0  0  0  0  0  0  0  0
    1.4838   -1.9491   -1.5385 H   0  0  0  0  0  0  0  0  0  0  0  0
   -1.7670    2.5705   -1.6084 H   0  0  0  0  0  0  0  0  0  0  0  0
   -0.9650    4.1446   -1.7823 H   0  0  0  0  0  0  0  0  0  0  0  0
   -2.3169    3.9562   -0.6516 H   0  0  0  0  0  0  0  0  0  0  0  0
    0.6248   -2.7630    1.2708 H   0  0  0  0  0  0  0  0  0  0  0  0
    0.1707   -3.6089   -0.2371 H   0  0  0  0  0  0  0  0  0  0  0  0
    2.6332   -4.0555   -0.7712 H   0  0  0  0  0  0  0  0  0  0  0  0
    3.7701   -2.6936   -0.8285 H   0  0  0  0  0  0  0  0  0  0  0  0
    3.1357   -3.2260    0.7208 H   0  0  0  0  0  0  0  0  0  0  0  0
   -1.6392   -2.2764    1.7038 H   0  0  0  0  0  0  0  0  0  0  0  0
   -2.1091   -3.1122    0.2163 H   0  0  0  0  0  0  0  0  0  0  0  0
   -2.4188    0.0118    2.1770 H   0  0  0  0  0  0  0  0  0  0  0  0
   -3.5648   -2.0243   -1.4461 H   0  0  0  0  0  0  0  0  0  0  0  0
   -4.1893    1.6892    1.7861 H   0  0  0  0  0  0  0  0  0  0  0  0
   -5.3314   -0.3401   -1.8253 H   0  0  0  0  0  0  0  0  0  0  0  0
   -5.6484    1.5187   -0.2131 H   0  0  0  0  0  0  0  0  0  0  0  0
  1  8  1  0  0  0  0
  1 11  1  0  0  0  0
  2  8  2  0  0  0  0
  3 13  1  0  0  0  0
  3 15  1  0  0  0  0
  4  5  1  0  0  0  0
  4  7  1  0  0  0  0
  4  8  1  0  0  0  0
  4 22  1  0  0  0  0
  5  6  1  0  0  0  0
  5 23  1  0  0  0  0
  5 24  1  0  0  0  0
  6  9  1  0  0  0  0
  6 25  1  0  0  0  0
  6 26  1  0  0  0  0
  7 10  1  0  0  0  0
  7 27  1  0  0  0  0
  7 28  1  0  0  0  0
  9 12  1  0  0  0  0
  9 29  1  0  0  0  0
  9 30  1  0  0  0  0
 10 31  1  0  0  0  0
 10 32  1  0  0  0  0
 10 33  1  0  0  0  0
 11 13  1  0  0  0  0
 11 14  1  0  0  0  0
 11 34  1  0  0  0  0
 12 35  1  0  0  0  0
 12 36  1  0  0  0  0
 12 37  1  0  0  0  0
 13 38  1  0  0  0  0
 13 39  1  0  0  0  0
 14 40  1  0  0  0  0
 14 41  1  0  0  0  0
 14 42  1  0  0  0  0
 15 16  1  0  0  0  0
 15 43  1  0  0  0  0
 15 44  1  0  0  0  0
 16 17  2  0  0  0  0
 16 18  1  0  0  0  0
 17 19  1  0  0  0  0
 17 45  1  0  0  0  0
 18 20  2  0  0  0  0
 18 46  1  0  0  0  0
 19 21  2  0  0  0  0
 19 47  1  0  0  0  0
 20 21  1  0  0  0  0
 20 48  1  0  0  0  0
 21 49  1  0  0  0  0
M  END
> <PUBCHEM_COMPOUND_CID>
86278333

> <PUBCHEM_CONFORMER_RMSD>
1

> <PUBCHEM_CONFORMER_DIVERSEORDER>
1
237
107
264
99
292
238
150
17
19
131
263
239
63
287
139
259
168
5
291
279
204
244
106
256
252
267
11
45
260
214
202
33
197
138
28
277
185
218
258
95
240
152
105
285
65
283
100
242
49
156
163
299
148
153
58
60
88
270
38
297
16
275
72
289
53
215
20
302
77
265
250
273
196
199
269
257
194
175
192
301
280
213
305
226
101
186
96
211
44
251
13
8
10
288
64
149
155
246
110
203
294
85
37
109
67
23
172
50
247
146
103
25
136
70
195
290
36
74
118
54
167
303
18
46
145
198
143
15
125
220
157
222
254
227
171
174
76
248
6
274
93
61
43
298
255
89
84
30
94
261
159
116
92
221
249
165
189
29
176
24
181
112
253
32
235
200
48
98
134
164
55
83
183
80
87
300
126
201
51
9
137
71
57
188
212
41
272
27
82
123
207
307
223
296
184
108
135
122
132
209
180
121
205
40
141
113
166
66
56
284
262
231
225
14
245
69
293
236
170
158
278
26
115
97
178
75
47
147
234
34
232
228
111
12
142
182
91
79
42
140
243
208
193
154
133
2
304
39
217
52
114
233
59
219
162
86
128
210
177
102
7
282
230
216
191
119
130
206
104
187
73
127
68
295
117
4
271
306
266
276
124
129
21
160
151
224
179
169
190
144
120
31
35
229
268
173
78
161
22
3
286
62
90
241
281
81

> <PUBCHEM_MMFF94_PARTIAL_CHARGES>
19
1 -0.43
11 0.28
13 0.28
15 0.42
16 -0.14
17 -0.15
18 -0.15
19 -0.15
2 -0.57
20 -0.15
21 -0.15
3 -0.56
4 0.06
45 0.15
46 0.15
47 0.15
48 0.15
49 0.15
8 0.66

> <PUBCHEM_EFFECTIVE_ROTOR_COUNT>
11

> <PUBCHEM_PHARMACOPHORE_FEATURES>
6
1 10 hydrophobe
1 12 hydrophobe
1 2 acceptor
1 3 acceptor
5 4 5 6 7 9 hydrophobe
6 16 17 18 19 20 21 rings

> <PUBCHEM_HEAVY_ATOM_COUNT>
21

> <PUBCHEM_ATOM_DEF_STEREO_COUNT>
0

> <PUBCHEM_ATOM_UDEF_STEREO_COUNT>
2

> <PUBCHEM_BOND_DEF_STEREO_COUNT>
0

> <PUBCHEM_BOND_UDEF_STEREO_COUNT>
0

> <PUBCHEM_ISOTOPIC_ATOM_COUNT>
0

> <PUBCHEM_COMPONENT_COUNT>
1

> <PUBCHEM_CACTVS_TAUTO_COUNT>
2

> <PUBCHEM_CONFORMER_ID>
052480BD00000001

> <PUBCHEM_MMFF94_ENERGY>
30.3101

> <PUBCHEM_FEATURE_SELFOVERLAP>
30.447

> <PUBCHEM_SHAPE_FINGERPRINT>
10708813 3 18271822172358397737
11370993 70 18128249193453619577
11646440 116 18342184405333674401
12403260 363 18122336054242540775
12539773 59 17775011198017651369
12553582 1 18335718147096145965
12596599 1 17774736289644932007
12633257 1 18260546770508797541
12838863 1 18265873895787540971
13122387 1 16679224384507427765
13140716 1 18265616678669807448
13402501 40 18408597059282461325
14466204 15 18338790225860392384
14790565 3 18121505923591596732
15210252 30 17969241038886176292
17093844 170 18409727327023415928
18219364 16 18263655124467177291
19930381 70 18193277618935835811
20621476 13 18410009953035264701
21298829 104 18343019957225953977
21673915 165 18343018874118475409
22113638 7 18195521712950672125
22749437 52 18268995465227810817
3014063 31 18265896856925181661
338550 245 18117850893110342685
474 4 18410571812304642699
59755656 215 18410576141985033478
6328613 192 18265898154554165016
653340 110 18268705009222017368

> <PUBCHEM_SHAPE_MULTIPOLES>
414.56
9.71
3.9
1.2
2.32
0.8
0.07
0.27
-1.13
-0.88
0.68
-0.04
0.23
0.7

> <PUBCHEM_SHAPE_SELFOVERLAP>
816.803

> <PUBCHEM_SHAPE_VOLUME>
248.5

> <PUBCHEM_COORDINATE_TYPE>
2
5
10

$$$$
