86558
  -OEChem-11232109233D

 33 33  0     1  0  0  0  0  0999 V2000
   -2.0953   -2.1160    0.4283 O   0  0  0  0  0  0  0  0  0  0  0  0
    1.1360   -0.4860   -0.1883 C   0  0  2  0  0  0  0  0  0  0  0  0
    0.6764    0.9516    0.1972 C   0  0  1  0  0  0  0  0  0  0  0  0
    0.2062   -1.5148    0.4701 C   0  0  0  0  0  0  0  0  0  0  0  0
    2.5847   -0.7644    0.2629 C   0  0  0  0  0  0  0  0  0  0  0  0
   -0.8049    1.1718   -0.1030 C   0  0  0  0  0  0  0  0  0  0  0  0
    1.1072   -0.6592   -1.7280 C   0  0  0  0  0  0  0  0  0  0  0  0
    0.9526    1.3227    1.6648 C   0  0  0  0  0  0  0  0  0  0  0  0
   -1.7103    0.1698   -0.0855 C   0  0  0  0  0  0  0  0  0  0  0  0
   -1.2644   -1.2202    0.2671 C   0  0  0  0  0  0  0  0  0  0  0  0
    3.5370    0.2451   -0.3343 C   0  0  0  0  0  0  0  0  0  0  0  0
   -1.1536    2.6033   -0.4359 C   0  0  0  0  0  0  0  0  0  0  0  0
   -3.1716    0.2964   -0.4153 C   0  0  0  0  0  0  0  0  0  0  0  0
    1.2290    1.6641   -0.4298 H   0  0  0  0  0  0  0  0  0  0  0  0
    0.3764   -1.5661    1.5521 H   0  0  0  0  0  0  0  0  0  0  0  0
    0.4073   -2.5122    0.0591 H   0  0  0  0  0  0  0  0  0  0  0  0
    2.8915   -1.7721   -0.0461 H   0  0  0  0  0  0  0  0  0  0  0  0
    2.6703   -0.7520    1.3555 H   0  0  0  0  0  0  0  0  0  0  0  0
    1.5959   -1.5919   -2.0331 H   0  0  0  0  0  0  0  0  0  0  0  0
    0.0843   -0.7027   -2.1172 H   0  0  0  0  0  0  0  0  0  0  0  0
    1.5971    0.1687   -2.2506 H   0  0  0  0  0  0  0  0  0  0  0  0
    2.0215    1.3293    1.8943 H   0  0  0  0  0  0  0  0  0  0  0  0
    0.5850    2.3279    1.8979 H   0  0  0  0  0  0  0  0  0  0  0  0
    0.4617    0.6324    2.3588 H   0  0  0  0  0  0  0  0  0  0  0  0
    3.5920    0.1876   -1.4245 H   0  0  0  0  0  0  0  0  0  0  0  0
    3.3257    1.2771   -0.0465 H   0  0  0  0  0  0  0  0  0  0  0  0
    4.5494    0.0306    0.0289 H   0  0  0  0  0  0  0  0  0  0  0  0
   -0.8047    2.8461   -1.4448 H   0  0  0  0  0  0  0  0  0  0  0  0
   -0.6747    3.2951    0.2641 H   0  0  0  0  0  0  0  0  0  0  0  0
   -2.2236    2.8153   -0.3821 H   0  0  0  0  0  0  0  0  0  0  0  0
   -3.4962   -0.5327   -1.0543 H   0  0  0  0  0  0  0  0  0  0  0  0
   -3.4136    1.2080   -0.9662 H   0  0  0  0  0  0  0  0  0  0  0  0
   -3.7686    0.2784    0.5021 H   0  0  0  0  0  0  0  0  0  0  0  0
  1 10  2  0  0  0  0
  2  3  1  0  0  0  0
  2  4  1  0  0  0  0
  2  5  1  0  0  0  0
  2  7  1  0  0  0  0
  3  6  1  0  0  0  0
  3  8  1  0  0  0  0
  3 14  1  0  0  0  0
  4 10  1  0  0  0  0
  4 15  1  0  0  0  0
  4 16  1  0  0  0  0
  5 11  1  0  0  0  0
  5 17  1  0  0  0  0
  5 18  1  0  0  0  0
  6  9  2  0  0  0  0
  6 12  1  0  0  0  0
  7 19  1  0  0  0  0
  7 20  1  0  0  0  0
  7 21  1  0  0  0  0
  8 22  1  0  0  0  0
  8 23  1  0  0  0  0
  8 24  1  0  0  0  0
  9 10  1  0  0  0  0
  9 13  1  0  0  0  0
 11 25  1  0  0  0  0
 11 26  1  0  0  0  0
 11 27  1  0  0  0  0
 12 28  1  0  0  0  0
 12 29  1  0  0  0  0
 12 30  1  0  0  0  0
 13 31  1  0  0  0  0
 13 32  1  0  0  0  0
 13 33  1  0  0  0  0
M  END
> <PUBCHEM_COMPOUND_CID>
86558

> <PUBCHEM_CONFORMER_RMSD>
0.6

> <PUBCHEM_CONFORMER_DIVERSEORDER>
2
7
9
8
4
3
6
1
5

> <PUBCHEM_MMFF94_PARTIAL_CHARGES>
8
1 -0.57
10 0.49
12 0.14
13 0.14
3 0.14
4 0.06
6 -0.28
9 -0.12

> <PUBCHEM_EFFECTIVE_ROTOR_COUNT>
1.6

> <PUBCHEM_PHARMACOPHORE_FEATURES>
3
1 1 acceptor
1 11 hydrophobe
6 2 3 4 6 9 10 rings

> <PUBCHEM_HEAVY_ATOM_COUNT>
13

> <PUBCHEM_ATOM_DEF_STEREO_COUNT>
0

> <PUBCHEM_ATOM_UDEF_STEREO_COUNT>
2

> <PUBCHEM_BOND_DEF_STEREO_COUNT>
0

> <PUBCHEM_BOND_UDEF_STEREO_COUNT>
0

> <PUBCHEM_ISOTOPIC_ATOM_COUNT>
0

> <PUBCHEM_COMPONENT_COUNT>
1

> <PUBCHEM_CACTVS_TAUTO_COUNT>
8

> <PUBCHEM_CONFORMER_ID>
0001521E00000002

> <PUBCHEM_MMFF94_ENERGY>
30.9524

> <PUBCHEM_FEATURE_SELFOVERLAP>
15.223

> <PUBCHEM_SHAPE_FINGERPRINT>
11206711 2 18339353050911953205
12138202 97 18409725136436887118
12423570 1 10469121825076584747
12491281 212 17895486817055093268
12716758 59 18195254312650362166
13024252 1 17603591824181794570
13839132 238 18195251009878410684
14817 1 14252900825116676710
15207287 21 18201425952868596847
15219456 202 18198900503577049568
15775835 57 18194403290734930969
16945 1 18336271149867938286
17990270 104 17903633326201155459
18534176 82 18409452474806712822
193761 8 17759807339711291311
20201158 50 18201721730070435790
20511035 2 18127686252053007821
20588541 1 18342461417512244767
21040471 1 18047195146063337415
21061003 4 17346610681130528274
21501502 16 18267026239596567145
22344851 262 17458636579326371518
2334 1 18121497122638292729
23402539 116 18338785737308357733
23559900 14 18411135823700178070
2748010 2 18194956568268741507
353137 74 18261954037907567525
5084963 1 18271235049890963408
528886 8 18333729130376382713
53812653 166 18411697690620234083
53812653 8 18189617150857511121

> <PUBCHEM_SHAPE_MULTIPOLES>
261.66
3.98
2.11
1.14
1.02
0.42
-0.05
-0.19
-0.53
-1.07
0.23
0.4
0.12
0.48

> <PUBCHEM_SHAPE_SELFOVERLAP>
524.517

> <PUBCHEM_SHAPE_VOLUME>
155

> <PUBCHEM_COORDINATE_TYPE>
2
5
10

$$$$
