86592
  -OEChem-11232108573D

 22 21  0     0  0  0  0  0  0999 V2000
   -3.4688   -1.3134   -0.0019 O   0  0  0  0  0  0  0  0  0  0  0  0
   -0.8874   -0.1627    0.0010 C   0  0  0  0  0  0  0  0  0  0  0  0
    0.4328    0.4300   -0.0012 C   0  0  0  0  0  0  0  0  0  0  0  0
    1.5610   -0.2959    0.0005 C   0  0  0  0  0  0  0  0  0  0  0  0
   -2.0090    0.5702   -0.0007 C   0  0  0  0  0  0  0  0  0  0  0  0
    2.8796    0.2980   -0.0008 C   0  0  0  0  0  0  0  0  0  0  0  0
   -3.3440   -0.0906    0.0027 C   0  0  0  0  0  0  0  0  0  0  0  0
    4.0096   -0.4242    0.0010 C   0  0  0  0  0  0  0  0  0  0  0  0
   -4.5502    0.8114   -0.0003 C   0  0  0  0  0  0  0  0  0  0  0  0
    5.3765    0.1773   -0.0002 C   0  0  0  0  0  0  0  0  0  0  0  0
   -0.9368   -1.2485    0.0056 H   0  0  0  0  0  0  0  0  0  0  0  0
    0.4862    1.5166   -0.0041 H   0  0  0  0  0  0  0  0  0  0  0  0
   -1.9830    1.6548   -0.0061 H   0  0  0  0  0  0  0  0  0  0  0  0
    1.5083   -1.3825    0.0034 H   0  0  0  0  0  0  0  0  0  0  0  0
    2.9378    1.3835   -0.0034 H   0  0  0  0  0  0  0  0  0  0  0  0
    3.9621   -1.5106    0.0035 H   0  0  0  0  0  0  0  0  0  0  0  0
   -4.2777    1.8448    0.2301 H   0  0  0  0  0  0  0  0  0  0  0  0
   -5.0220    0.7782   -0.9857 H   0  0  0  0  0  0  0  0  0  0  0  0
   -5.2544    0.4701    0.7636 H   0  0  0  0  0  0  0  0  0  0  0  0
    5.9274   -0.1521   -0.8865 H   0  0  0  0  0  0  0  0  0  0  0  0
    5.3492    1.2715   -0.0027 H   0  0  0  0  0  0  0  0  0  0  0  0
    5.9273   -0.1480    0.8877 H   0  0  0  0  0  0  0  0  0  0  0  0
  1  7  2  0  0  0  0
  2  3  1  0  0  0  0
  2  5  2  3  0  0  0
  2 11  1  0  0  0  0
  3  4  2  3  0  0  0
  3 12  1  0  0  0  0
  4  6  1  0  0  0  0
  4 14  1  0  0  0  0
  5  7  1  0  0  0  0
  5 13  1  0  0  0  0
  6  8  2  3  0  0  0
  6 15  1  0  0  0  0
  7  9  1  0  0  0  0
  8 10  1  0  0  0  0
  8 16  1  0  0  0  0
  9 17  1  0  0  0  0
  9 18  1  0  0  0  0
  9 19  1  0  0  0  0
 10 20  1  0  0  0  0
 10 21  1  0  0  0  0
 10 22  1  0  0  0  0
M  END
> <PUBCHEM_COMPOUND_CID>
86592

> <PUBCHEM_CONFORMER_RMSD>
0.6

> <PUBCHEM_CONFORMER_DIVERSEORDER>
1
3
7
5
4
2
6

> <PUBCHEM_MMFF94_PARTIAL_CHARGES>
16
1 -0.57
10 0.14
11 0.15
12 0.15
13 0.15
14 0.15
15 0.15
16 0.15
2 -0.15
3 -0.15
4 -0.15
5 -0.14
6 -0.15
7 0.49
8 -0.29
9 0.06

> <PUBCHEM_EFFECTIVE_ROTOR_COUNT>
3

> <PUBCHEM_PHARMACOPHORE_FEATURES>
2
1 1 acceptor
1 10 hydrophobe

> <PUBCHEM_HEAVY_ATOM_COUNT>
10

> <PUBCHEM_ATOM_DEF_STEREO_COUNT>
0

> <PUBCHEM_ATOM_UDEF_STEREO_COUNT>
0

> <PUBCHEM_BOND_DEF_STEREO_COUNT>
0

> <PUBCHEM_BOND_UDEF_STEREO_COUNT>
3

> <PUBCHEM_ISOTOPIC_ATOM_COUNT>
0

> <PUBCHEM_COMPONENT_COUNT>
1

> <PUBCHEM_CACTVS_TAUTO_COUNT>
2

> <PUBCHEM_CONFORMER_ID>
0001524000000001

> <PUBCHEM_MMFF94_ENERGY>
8.8803

> <PUBCHEM_FEATURE_SELFOVERLAP>
10.148

> <PUBCHEM_SHAPE_FINGERPRINT>
11062470 55 18040998431704858984
11401426 45 18261108573505484228
14123238 8 11959728274484918296
15242439 84 18131067125691089865
15501527 16 18338237051506393545
17834072 33 18336549421221156412
17834076 25 17167864157760299912
18342897 14 18202563973320718216
190213 19 17775288261377010408
20279233 1 17632302271985597439
20645477 56 18335137545396785493
20645477 70 16772959086388628030
20719005 15 18410855460660918244
20828058 44 18412544322926263526
22485316 2 18410008827796044162
23402539 116 18260823804367888132
366044 4 18259704497151864651
42788 4 18410856559993314884

> <PUBCHEM_SHAPE_MULTIPOLES>
199.93
11.02
0.89
0.61
4.87
0.12
0
-0.42
0
-0.66
0
0.03
-0.01
0

> <PUBCHEM_SHAPE_SELFOVERLAP>
375.325

> <PUBCHEM_SHAPE_VOLUME>
124.1

> <PUBCHEM_COORDINATE_TYPE>
2
5
10

$$$$
