86707
  -OEChem-11232109063D

 27 28  0     1  0  0  0  0  0999 V2000
    2.2698   -1.1441   -0.8257 O   0  0  0  0  0  0  0  0  0  0  0  0
   -0.2911    0.8792    0.4969 C   0  0  1  0  0  0  0  0  0  0  0  0
   -1.4493    0.1098   -0.2374 C   0  0  0  0  0  0  0  0  0  0  0  0
    0.3404   -1.2672    0.6564 C   0  0  1  0  0  0  0  0  0  0  0  0
    0.0643   -0.1153    1.6174 C   0  0  0  0  0  0  0  0  0  0  0  0
   -0.9673   -1.3718   -0.1422 C   0  0  0  0  0  0  0  0  0  0  0  0
    1.0159    0.8938   -0.3504 C   0  0  2  0  0  0  0  0  0  0  0  0
    1.3503   -0.5848   -0.2486 C   0  0  0  0  0  0  0  0  0  0  0  0
   -2.7878    0.3008    0.5042 C   0  0  0  0  0  0  0  0  0  0  0  0
   -1.6693    0.5379   -1.6952 C   0  0  0  0  0  0  0  0  0  0  0  0
    2.1239    1.7617    0.2247 C   0  0  0  0  0  0  0  0  0  0  0  0
   -0.5855    1.8712    0.8504 H   0  0  0  0  0  0  0  0  0  0  0  0
    0.7096   -2.1879    1.1069 H   0  0  0  0  0  0  0  0  0  0  0  0
   -0.7541   -0.3253    2.3110 H   0  0  0  0  0  0  0  0  0  0  0  0
    0.9401    0.1802    2.2031 H   0  0  0  0  0  0  0  0  0  0  0  0
   -0.7997   -1.8217   -1.1272 H   0  0  0  0  0  0  0  0  0  0  0  0
   -1.6914   -1.9927    0.3974 H   0  0  0  0  0  0  0  0  0  0  0  0
    0.8343    1.1769   -1.3885 H   0  0  0  0  0  0  0  0  0  0  0  0
   -3.0869    1.3550    0.4981 H   0  0  0  0  0  0  0  0  0  0  0  0
   -2.7436   -0.0226    1.5480 H   0  0  0  0  0  0  0  0  0  0  0  0
   -3.5864   -0.2768    0.0244 H   0  0  0  0  0  0  0  0  0  0  0  0
   -0.8334    0.2607   -2.3446 H   0  0  0  0  0  0  0  0  0  0  0  0
   -1.8136    1.6213   -1.7666 H   0  0  0  0  0  0  0  0  0  0  0  0
   -2.5579    0.0527   -2.1156 H   0  0  0  0  0  0  0  0  0  0  0  0
    1.7944    2.8018    0.3116 H   0  0  0  0  0  0  0  0  0  0  0  0
    2.4616    1.4239    1.2089 H   0  0  0  0  0  0  0  0  0  0  0  0
    2.9997    1.7379   -0.4333 H   0  0  0  0  0  0  0  0  0  0  0  0
  1  8  2  0  0  0  0
  2  3  1  0  0  0  0
  2  5  1  0  0  0  0
  2  7  1  0  0  0  0
  2 12  1  0  0  0  0
  3  6  1  0  0  0  0
  3  9  1  0  0  0  0
  3 10  1  0  0  0  0
  4  5  1  0  0  0  0
  4  6  1  0  0  0  0
  4  8  1  0  0  0  0
  4 13  1  0  0  0  0
  5 14  1  0  0  0  0
  5 15  1  0  0  0  0
  6 16  1  0  0  0  0
  6 17  1  0  0  0  0
  7  8  1  0  0  0  0
  7 11  1  0  0  0  0
  7 18  1  0  0  0  0
  9 19  1  0  0  0  0
  9 20  1  0  0  0  0
  9 21  1  0  0  0  0
 10 22  1  0  0  0  0
 10 23  1  0  0  0  0
 10 24  1  0  0  0  0
 11 25  1  0  0  0  0
 11 26  1  0  0  0  0
 11 27  1  0  0  0  0
M  END
> <PUBCHEM_COMPOUND_CID>
86707

> <PUBCHEM_CONFORMER_RMSD>
0.4

> <PUBCHEM_CONFORMER_DIVERSEORDER>
1
3
2
4

> <PUBCHEM_MMFF94_PARTIAL_CHARGES>
4
1 -0.57
4 0.06
7 0.06
8 0.45

> <PUBCHEM_EFFECTIVE_ROTOR_COUNT>
0.8

> <PUBCHEM_PHARMACOPHORE_FEATURES>
3
1 1 acceptor
3 3 9 10 hydrophobe
7 2 3 4 5 6 7 8 rings

> <PUBCHEM_HEAVY_ATOM_COUNT>
11

> <PUBCHEM_ATOM_DEF_STEREO_COUNT>
0

> <PUBCHEM_ATOM_UDEF_STEREO_COUNT>
3

> <PUBCHEM_BOND_DEF_STEREO_COUNT>
0

> <PUBCHEM_BOND_UDEF_STEREO_COUNT>
0

> <PUBCHEM_ISOTOPIC_ATOM_COUNT>
0

> <PUBCHEM_COMPONENT_COUNT>
1

> <PUBCHEM_CACTVS_TAUTO_COUNT>
2

> <PUBCHEM_CONFORMER_ID>
000152B300000001

> <PUBCHEM_MMFF94_ENERGY>
41.8506

> <PUBCHEM_FEATURE_SELFOVERLAP>
15.223

> <PUBCHEM_SHAPE_FINGERPRINT>
10857977 72 16805897276755323281
12423570 1 15166278422881050115
13024252 1 14997441420350781950
13380535 239 18193829560192050975
137420 1 14180232426446916850
14128692 85 17418086594683387014
15310529 11 17632019753257941533
15557651 10 17677063342849157541
16945 1 18339078185726172555
21040471 1 18263085572721643368
21930827 45 17241345679480452578
241688 4 17407980789986481554
2748010 2 18336552732092354215
29004967 10 18339647724159439099
369184 2 17628930220142016240
5084963 1 17386297501436799165
528886 8 18343584066028572176
54276843 12 17487625125946052763
68250623 7 18059589030448001015

> <PUBCHEM_SHAPE_MULTIPOLES>
220.51
2.93
1.53
1.28
0.41
0.04
-0.03
-0.69
-0.33
-0.62
-0.05
0.25
-0.04
0.37

> <PUBCHEM_SHAPE_SELFOVERLAP>
465.796

> <PUBCHEM_SHAPE_VOLUME>
131.2

> <PUBCHEM_COORDINATE_TYPE>
2
5
10

$$$$
