86736
  -OEChem-11232109013D

 30 30  0     1  0  0  0  0  0999 V2000
   -3.8896   -0.1840    0.2063 O   0  0  0  0  0  0  0  0  0  0  0  0
   -3.0046    1.9160   -0.0433 O   0  0  0  0  0  0  0  0  0  0  0  0
   -1.6274   -0.0577   -0.4223 C   0  0  1  0  0  0  0  0  0  0  0  0
   -0.3703    0.5825    0.1343 C   0  0  0  0  0  0  0  0  0  0  0  0
   -1.9134   -1.4160    0.1849 C   0  0  0  0  0  0  0  0  0  0  0  0
    0.8820   -0.1903   -0.2792 C   0  0  0  0  0  0  0  0  0  0  0  0
    2.1505    0.4776    0.2566 C   0  0  0  0  0  0  0  0  0  0  0  0
   -3.4099   -1.5227    0.0398 C   0  0  0  0  0  0  0  0  0  0  0  0
   -2.8801    0.7014   -0.0640 C   0  0  0  0  0  0  0  0  0  0  0  0
    3.4047   -0.2764   -0.1909 C   0  0  0  0  0  0  0  0  0  0  0  0
    4.7048    0.3648    0.2991 C   0  0  0  0  0  0  0  0  0  0  0  0
    5.9532   -0.3952   -0.1214 C   0  0  0  0  0  0  0  0  0  0  0  0
   -1.5879   -0.1247   -1.5165 H   0  0  0  0  0  0  0  0  0  0  0  0
   -0.4253    0.6527    1.2283 H   0  0  0  0  0  0  0  0  0  0  0  0
   -0.2944    1.6142   -0.2324 H   0  0  0  0  0  0  0  0  0  0  0  0
   -1.6474   -1.4326    1.2493 H   0  0  0  0  0  0  0  0  0  0  0  0
   -1.3875   -2.2376   -0.3097 H   0  0  0  0  0  0  0  0  0  0  0  0
    0.8347   -1.2186    0.0975 H   0  0  0  0  0  0  0  0  0  0  0  0
    0.9323   -0.2481   -1.3734 H   0  0  0  0  0  0  0  0  0  0  0  0
    2.1149    0.5144    1.3520 H   0  0  0  0  0  0  0  0  0  0  0  0
    2.2015    1.5130   -0.1011 H   0  0  0  0  0  0  0  0  0  0  0  0
   -3.7098   -1.8799   -0.9510 H   0  0  0  0  0  0  0  0  0  0  0  0
   -3.8515   -2.1698    0.8028 H   0  0  0  0  0  0  0  0  0  0  0  0
    3.4247   -0.3300   -1.2865 H   0  0  0  0  0  0  0  0  0  0  0  0
    3.3544   -1.3094    0.1753 H   0  0  0  0  0  0  0  0  0  0  0  0
    4.7694    1.3909   -0.0820 H   0  0  0  0  0  0  0  0  0  0  0  0
    4.6855    0.4332    1.3933 H   0  0  0  0  0  0  0  0  0  0  0  0
    6.8496    0.1073    0.2550 H   0  0  0  0  0  0  0  0  0  0  0  0
    6.0262   -0.4521   -1.2120 H   0  0  0  0  0  0  0  0  0  0  0  0
    5.9414   -1.4151    0.2758 H   0  0  0  0  0  0  0  0  0  0  0  0
  1  8  1  0  0  0  0
  1  9  1  0  0  0  0
  2  9  2  0  0  0  0
  3  4  1  0  0  0  0
  3  5  1  0  0  0  0
  3  9  1  0  0  0  0
  3 13  1  0  0  0  0
  4  6  1  0  0  0  0
  4 14  1  0  0  0  0
  4 15  1  0  0  0  0
  5  8  1  0  0  0  0
  5 16  1  0  0  0  0
  5 17  1  0  0  0  0
  6  7  1  0  0  0  0
  6 18  1  0  0  0  0
  6 19  1  0  0  0  0
  7 10  1  0  0  0  0
  7 20  1  0  0  0  0
  7 21  1  0  0  0  0
  8 22  1  0  0  0  0
  8 23  1  0  0  0  0
 10 11  1  0  0  0  0
 10 24  1  0  0  0  0
 10 25  1  0  0  0  0
 11 12  1  0  0  0  0
 11 26  1  0  0  0  0
 11 27  1  0  0  0  0
 12 28  1  0  0  0  0
 12 29  1  0  0  0  0
 12 30  1  0  0  0  0
M  END
> <PUBCHEM_COMPOUND_CID>
86736

> <PUBCHEM_CONFORMER_RMSD>
0.6

> <PUBCHEM_CONFORMER_DIVERSEORDER>
1
110
64
61
84
111
49
71
11
104
22
109
20
46
89
5
44
12
86
8
29
13
63
26
103
15
87
66
39
4
81
97
45
72
107
95
41
6
31
101
33
99
55
43
2
108
105
70
62
79
23
90
58
3
74
48
73
50
53
10
76
28
7
9
38
68
42
106
24
18
30
88
54
52
80
100
34
16
57
19
59
35
14
67
40
78
98
36
51
82
69
21
94
25
27
93
47
37
91
75
17
85
32
92
60
65
56
83
77
96
102

> <PUBCHEM_MMFF94_PARTIAL_CHARGES>
5
1 -0.43
2 -0.57
3 0.06
8 0.28
9 0.66

> <PUBCHEM_EFFECTIVE_ROTOR_COUNT>
5.8

> <PUBCHEM_PHARMACOPHORE_FEATURES>
4
1 12 hydrophobe
1 2 acceptor
5 1 3 5 8 9 rings
5 4 6 7 10 11 hydrophobe

> <PUBCHEM_HEAVY_ATOM_COUNT>
12

> <PUBCHEM_ATOM_DEF_STEREO_COUNT>
0

> <PUBCHEM_ATOM_UDEF_STEREO_COUNT>
1

> <PUBCHEM_BOND_DEF_STEREO_COUNT>
0

> <PUBCHEM_BOND_UDEF_STEREO_COUNT>
0

> <PUBCHEM_ISOTOPIC_ATOM_COUNT>
0

> <PUBCHEM_COMPONENT_COUNT>
1

> <PUBCHEM_CACTVS_TAUTO_COUNT>
2

> <PUBCHEM_CONFORMER_ID>
000152D000000001

> <PUBCHEM_MMFF94_ENERGY>
3.9561

> <PUBCHEM_FEATURE_SELFOVERLAP>
20.297

> <PUBCHEM_SHAPE_FINGERPRINT>
10680689 15 18335144193483517504
10912923 1 17821445764449703032
124424 183 18060697290634002144
12757275 245 18335421321763933675
13167823 11 18333446539404871274
13214271 11 18272086089054809813
14123238 8 17603304860722065878
15501527 16 18341615876012305625
17834072 33 18261116313864798412
17834076 25 14189576338542658998
1986462 14 18408886239287725508
20279233 1 17917999377610290518
20645464 45 18060144245291760511
20645477 56 18337674114105343893
20645477 70 17131557120513387958
20828058 21 18412826893710231646
20828058 44 18410573989984527606
21426921 1 18409165511310340037
22485316 2 18409445873948510746
2297311 6 18341905090614723868
2306618 200 18130795546804423865
23380061 127 18409165519388461237
23402539 116 18412537730673535143
23559900 14 18339633555173352816
42 15 18411982472969643310
4214541 1 18410292497675135852
42788 4 18410855465341000916
573450 72 18260536806342861802
77779 3 18410293618888258548

> <PUBCHEM_SHAPE_MULTIPOLES>
235.22
10.92
1.34
0.65
14.83
0.06
-0.01
-1.08
0.24
-1.69
0.04
0.08
-0.02
0.21

> <PUBCHEM_SHAPE_SELFOVERLAP>
452.704

> <PUBCHEM_SHAPE_VOLUME>
145.5

> <PUBCHEM_COORDINATE_TYPE>
2
5
10

$$$$
