86749
  -OEChem-11232109153D

 31 30  0     1  0  0  0  0  0999 V2000
   -2.5650    0.7604    1.3342 O   0  0  0  0  0  0  0  0  0  0  0  0
   -1.8753    0.4820    0.1064 C   0  0  1  0  0  0  0  0  0  0  0  0
   -0.4505    0.0131    0.4770 C   0  0  0  0  0  0  0  0  0  0  0  0
   -2.7086   -0.5677   -0.6576 C   0  0  0  0  0  0  0  0  0  0  0  0
    0.4559   -0.3280   -0.7089 C   0  0  0  0  0  0  0  0  0  0  0  0
   -1.8438    1.7889   -0.6965 C   0  0  0  0  0  0  0  0  0  0  0  0
   -2.8174   -1.9193    0.0398 C   0  0  0  0  0  0  0  0  0  0  0  0
    1.7926   -0.8298   -0.2359 C   0  0  0  0  0  0  0  0  0  0  0  0
    2.9027   -0.1102    0.0142 C   0  0  0  0  0  0  0  0  0  0  0  0
    4.2123   -0.6749    0.4869 C   0  0  0  0  0  0  0  0  0  0  0  0
    2.8970    1.3854   -0.1597 C   0  0  0  0  0  0  0  0  0  0  0  0
    0.0232    0.7993    1.0824 H   0  0  0  0  0  0  0  0  0  0  0  0
   -0.5153   -0.8453    1.1593 H   0  0  0  0  0  0  0  0  0  0  0  0
   -3.7300   -0.1879   -0.7928 H   0  0  0  0  0  0  0  0  0  0  0  0
   -2.2972   -0.7224   -1.6621 H   0  0  0  0  0  0  0  0  0  0  0  0
    0.5741    0.5262   -1.3817 H   0  0  0  0  0  0  0  0  0  0  0  0
    0.0027   -1.1204   -1.3158 H   0  0  0  0  0  0  0  0  0  0  0  0
   -1.4006    1.6548   -1.6877 H   0  0  0  0  0  0  0  0  0  0  0  0
   -2.8551    2.1907   -0.8303 H   0  0  0  0  0  0  0  0  0  0  0  0
   -1.2765    2.5591   -0.1616 H   0  0  0  0  0  0  0  0  0  0  0  0
   -1.8484   -2.4237    0.0922 H   0  0  0  0  0  0  0  0  0  0  0  0
   -3.2120   -1.8150    1.0550 H   0  0  0  0  0  0  0  0  0  0  0  0
   -3.4966   -2.5722   -0.5182 H   0  0  0  0  0  0  0  0  0  0  0  0
   -3.4594    1.0736    1.1162 H   0  0  0  0  0  0  0  0  0  0  0  0
    1.8428   -1.9058   -0.0749 H   0  0  0  0  0  0  0  0  0  0  0  0
    5.0085   -0.4398   -0.2266 H   0  0  0  0  0  0  0  0  0  0  0  0
    4.4800   -0.2565    1.4624 H   0  0  0  0  0  0  0  0  0  0  0  0
    4.1669   -1.7640    0.5909 H   0  0  0  0  0  0  0  0  0  0  0  0
    1.9118    1.8195   -0.3420 H   0  0  0  0  0  0  0  0  0  0  0  0
    3.5471    1.6658   -0.9952 H   0  0  0  0  0  0  0  0  0  0  0  0
    3.2826    1.8658    0.7466 H   0  0  0  0  0  0  0  0  0  0  0  0
  1  2  1  0  0  0  0
  1 24  1  0  0  0  0
  2  3  1  0  0  0  0
  2  4  1  0  0  0  0
  2  6  1  0  0  0  0
  3  5  1  0  0  0  0
  3 12  1  0  0  0  0
  3 13  1  0  0  0  0
  4  7  1  0  0  0  0
  4 14  1  0  0  0  0
  4 15  1  0  0  0  0
  5  8  1  0  0  0  0
  5 16  1  0  0  0  0
  5 17  1  0  0  0  0
  6 18  1  0  0  0  0
  6 19  1  0  0  0  0
  6 20  1  0  0  0  0
  7 21  1  0  0  0  0
  7 22  1  0  0  0  0
  7 23  1  0  0  0  0
  8  9  2  0  0  0  0
  8 25  1  0  0  0  0
  9 10  1  0  0  0  0
  9 11  1  0  0  0  0
 10 26  1  0  0  0  0
 10 27  1  0  0  0  0
 10 28  1  0  0  0  0
 11 29  1  0  0  0  0
 11 30  1  0  0  0  0
 11 31  1  0  0  0  0
M  END
> <PUBCHEM_COMPOUND_CID>
86749

> <PUBCHEM_CONFORMER_RMSD>
0.6

> <PUBCHEM_CONFORMER_DIVERSEORDER>
2
55
39
52
72
13
42
25
36
22
51
3
62
41
54
56
29
59
18
49
30
37
46
32
73
23
40
20
63
16
43
67
28
26
70
57
35
5
53
60
47
74
10
21
58
33
45
27
44
31
19
12
69
24
71
50
1
65
66
11
61
6
9
48
34
17
64
68
14
75
38
15
4
8
7

> <PUBCHEM_MMFF94_PARTIAL_CHARGES>
9
1 -0.68
10 0.14
11 0.14
2 0.28
24 0.4
25 0.15
5 0.14
8 -0.29
9 -0.28

> <PUBCHEM_EFFECTIVE_ROTOR_COUNT>
4

> <PUBCHEM_PHARMACOPHORE_FEATURES>
4
1 1 acceptor
1 1 donor
1 7 hydrophobe
3 9 10 11 hydrophobe

> <PUBCHEM_HEAVY_ATOM_COUNT>
11

> <PUBCHEM_ATOM_DEF_STEREO_COUNT>
0

> <PUBCHEM_ATOM_UDEF_STEREO_COUNT>
1

> <PUBCHEM_BOND_DEF_STEREO_COUNT>
0

> <PUBCHEM_BOND_UDEF_STEREO_COUNT>
0

> <PUBCHEM_ISOTOPIC_ATOM_COUNT>
0

> <PUBCHEM_COMPONENT_COUNT>
1

> <PUBCHEM_CACTVS_TAUTO_COUNT>
1

> <PUBCHEM_CONFORMER_ID>
000152DD00000002

> <PUBCHEM_MMFF94_ENERGY>
16.2189

> <PUBCHEM_FEATURE_SELFOVERLAP>
20.297

> <PUBCHEM_SHAPE_FINGERPRINT>
12162725 195 18409729569154236124
124424 183 17895467004386696580
12916754 54 18411419535611064526
12932764 1 18260836955716049286
13024252 1 16443349754467774309
13296908 3 13551479167831001430
14144814 61 18409164407414041610
14325111 11 18412544318989810542
18186145 218 18272375231054480702
200 152 18059561512566032239
20645477 56 18265051340799108365
20645477 70 13262663808723047040
21061003 4 17346880091317400755
22959321 4 18337107981343467638
2306618 200 18341046320319951393
23402539 116 18337658742654418125
25610 137 18267588103113043277
3248919 1 17917992741722164238
369184 2 18333453118840776053
57812782 119 18411130342673016502

> <PUBCHEM_SHAPE_MULTIPOLES>
220.51
6.68
1.64
0.91
4.62
0.15
0.12
-1.12
0.65
-0.93
-0.15
-0.41
0.11
-0.2

> <PUBCHEM_SHAPE_SELFOVERLAP>
405.726

> <PUBCHEM_SHAPE_VOLUME>
141.3

> <PUBCHEM_COORDINATE_TYPE>
2
5
10

$$$$
