86750
  -OEChem-11232108463D

 29 28  0     1  0  0  0  0  0999 V2000
    2.5324   -1.3723    1.0628 O   0  0  0  0  0  0  0  0  0  0  0  0
    2.0376   -0.4094    0.1169 C   0  0  1  0  0  0  0  0  0  0  0  0
    2.9937    0.8044    0.1673 C   0  0  0  0  0  0  0  0  0  0  0  0
    2.0722   -1.0883   -1.2594 C   0  0  0  0  0  0  0  0  0  0  0  0
    0.6583   -0.0222    0.6103 C   0  0  0  0  0  0  0  0  0  0  0  0
    2.5378    2.0247   -0.6223 C   0  0  0  0  0  0  0  0  0  0  0  0
   -0.5131   -0.2087   -0.0207 C   0  0  0  0  0  0  0  0  0  0  0  0
   -1.7807    0.2052    0.5450 C   0  0  0  0  0  0  0  0  0  0  0  0
   -3.0042    0.0658   -0.0019 C   0  0  0  0  0  0  0  0  0  0  0  0
   -4.2216    0.5595    0.7372 C   0  0  0  0  0  0  0  0  0  0  0  0
   -3.3124   -0.5587   -1.3353 C   0  0  0  0  0  0  0  0  0  0  0  0
    3.9881    0.5003   -0.1856 H   0  0  0  0  0  0  0  0  0  0  0  0
    3.1466    1.1038    1.2135 H   0  0  0  0  0  0  0  0  0  0  0  0
    1.6717   -0.4464   -2.0502 H   0  0  0  0  0  0  0  0  0  0  0  0
    1.5053   -2.0270   -1.2505 H   0  0  0  0  0  0  0  0  0  0  0  0
    3.0989   -1.3607   -1.5315 H   0  0  0  0  0  0  0  0  0  0  0  0
    0.6438    0.4486    1.5939 H   0  0  0  0  0  0  0  0  0  0  0  0
    2.4040    1.7880   -1.6818 H   0  0  0  0  0  0  0  0  0  0  0  0
    1.5985    2.4307   -0.2353 H   0  0  0  0  0  0  0  0  0  0  0  0
    3.2918    2.8157   -0.5513 H   0  0  0  0  0  0  0  0  0  0  0  0
   -0.5247   -0.6803   -0.9953 H   0  0  0  0  0  0  0  0  0  0  0  0
    3.4410   -1.6062    0.8061 H   0  0  0  0  0  0  0  0  0  0  0  0
   -1.7126    0.6801    1.5234 H   0  0  0  0  0  0  0  0  0  0  0  0
   -3.9712    1.0095    1.7036 H   0  0  0  0  0  0  0  0  0  0  0  0
   -4.7431    1.3179    0.1438 H   0  0  0  0  0  0  0  0  0  0  0  0
   -4.9117   -0.2694    0.9265 H   0  0  0  0  0  0  0  0  0  0  0  0
   -3.8109    0.1699   -1.9836 H   0  0  0  0  0  0  0  0  0  0  0  0
   -2.4313   -0.9186   -1.8699 H   0  0  0  0  0  0  0  0  0  0  0  0
   -3.9831   -1.4143   -1.2017 H   0  0  0  0  0  0  0  0  0  0  0  0
  1  2  1  0  0  0  0
  1 22  1  0  0  0  0
  2  3  1  0  0  0  0
  2  4  1  0  0  0  0
  2  5  1  0  0  0  0
  3  6  1  0  0  0  0
  3 12  1  0  0  0  0
  3 13  1  0  0  0  0
  4 14  1  0  0  0  0
  4 15  1  0  0  0  0
  4 16  1  0  0  0  0
  5  7  2  3  0  0  0
  5 17  1  0  0  0  0
  6 18  1  0  0  0  0
  6 19  1  0  0  0  0
  6 20  1  0  0  0  0
  7  8  1  0  0  0  0
  7 21  1  0  0  0  0
  8  9  2  0  0  0  0
  8 23  1  0  0  0  0
  9 10  1  0  0  0  0
  9 11  1  0  0  0  0
 10 24  1  0  0  0  0
 10 25  1  0  0  0  0
 10 26  1  0  0  0  0
 11 27  1  0  0  0  0
 11 28  1  0  0  0  0
 11 29  1  0  0  0  0
M  END
> <PUBCHEM_COMPOUND_CID>
86750

> <PUBCHEM_CONFORMER_RMSD>
0.6

> <PUBCHEM_CONFORMER_DIVERSEORDER>
2
28
12
25
11
17
5
21
9
22
7
26
15
13
18
6
24
31
27
14
10
30
19
3
16
23
29
8
20
1
4

> <PUBCHEM_MMFF94_PARTIAL_CHARGES>
12
1 -0.68
10 0.14
11 0.14
17 0.15
2 0.42
21 0.15
22 0.4
23 0.15
5 -0.29
7 -0.15
8 -0.15
9 -0.28

> <PUBCHEM_EFFECTIVE_ROTOR_COUNT>
3

> <PUBCHEM_PHARMACOPHORE_FEATURES>
4
1 1 acceptor
1 1 donor
1 6 hydrophobe
3 9 10 11 hydrophobe

> <PUBCHEM_HEAVY_ATOM_COUNT>
11

> <PUBCHEM_ATOM_DEF_STEREO_COUNT>
0

> <PUBCHEM_ATOM_UDEF_STEREO_COUNT>
1

> <PUBCHEM_BOND_DEF_STEREO_COUNT>
0

> <PUBCHEM_BOND_UDEF_STEREO_COUNT>
1

> <PUBCHEM_ISOTOPIC_ATOM_COUNT>
0

> <PUBCHEM_COMPONENT_COUNT>
1

> <PUBCHEM_CACTVS_TAUTO_COUNT>
1

> <PUBCHEM_CONFORMER_ID>
000152DE00000002

> <PUBCHEM_MMFF94_ENERGY>
15.3537

> <PUBCHEM_FEATURE_SELFOVERLAP>
20.297

> <PUBCHEM_SHAPE_FINGERPRINT>
12616999 72 17846505858548668103
12932764 1 17749108885425338523
13296908 3 16443344248029673987
14144814 61 17131832058344041139
14325111 11 17489586753648378183
170605 34 18337677519950794272
18186145 218 18333452027934920107
20279233 1 17385437739505539819
20645477 70 18261383408837717351
20715346 28 16805319994248076283
22096605 113 18189892187499065957
22169311 21 17240759592839030923
23402655 69 18201442458480772945
23557571 272 16515678970685147797
3248919 1 18201716254198142791
449060 62 18334863865326858996
5374978 207 13479140116223143837

> <PUBCHEM_SHAPE_MULTIPOLES>
220.51
7.15
1.37
1.14
5.41
0.25
0.13
1.08
0.31
-1.22
0.35
-0.1
-0.2
-0.9

> <PUBCHEM_SHAPE_SELFOVERLAP>
411.397

> <PUBCHEM_SHAPE_VOLUME>
139.4

> <PUBCHEM_COORDINATE_TYPE>
2
5
10

$$$$
