86834
  -OEChem-11232109433D

 23 24  0     1  0  0  0  0  0999 V2000
    0.6904   -1.6672   -0.0733 O   0  0  0  0  0  0  0  0  0  0  0  0
    2.9203    1.1083    0.3086 O   0  0  0  0  0  0  0  0  0  0  0  0
    3.4065   -1.0941   -0.1914 O   0  0  0  0  0  0  0  0  0  0  0  0
    0.1860   -0.4500   -0.6255 C   0  0  2  0  0  0  0  0  0  0  0  0
    1.2128   -0.4444    0.4621 C   0  0  2  0  0  0  0  0  0  0  0  0
   -1.2287   -0.1067   -0.3073 C   0  0  0  0  0  0  0  0  0  0  0  0
    2.6286   -0.2144    0.1523 C   0  0  0  0  0  0  0  0  0  0  0  0
   -2.1235   -1.1102    0.0644 C   0  0  0  0  0  0  0  0  0  0  0  0
   -1.6589    1.2182   -0.3833 C   0  0  0  0  0  0  0  0  0  0  0  0
   -3.4483   -0.7891    0.3598 C   0  0  0  0  0  0  0  0  0  0  0  0
   -2.9838    1.5392   -0.0877 C   0  0  0  0  0  0  0  0  0  0  0  0
   -3.8785    0.5355    0.2839 C   0  0  0  0  0  0  0  0  0  0  0  0
    4.2768    1.4750    0.0375 C   0  0  0  0  0  0  0  0  0  0  0  0
    0.5253   -0.2079   -1.6287 H   0  0  0  0  0  0  0  0  0  0  0  0
    0.9016   -0.1804    1.4667 H   0  0  0  0  0  0  0  0  0  0  0  0
   -1.8131   -2.1498    0.1238 H   0  0  0  0  0  0  0  0  0  0  0  0
   -0.9695    2.0074   -0.6718 H   0  0  0  0  0  0  0  0  0  0  0  0
   -4.1456   -1.5706    0.6474 H   0  0  0  0  0  0  0  0  0  0  0  0
   -3.3189    2.5705   -0.1468 H   0  0  0  0  0  0  0  0  0  0  0  0
   -4.9101    0.7854    0.5136 H   0  0  0  0  0  0  0  0  0  0  0  0
    4.3768    2.5517    0.1987 H   0  0  0  0  0  0  0  0  0  0  0  0
    4.5289    1.2508   -1.0034 H   0  0  0  0  0  0  0  0  0  0  0  0
    4.9539    0.9532    0.7206 H   0  0  0  0  0  0  0  0  0  0  0  0
  1  4  1  0  0  0  0
  1  5  1  0  0  0  0
  2  7  1  0  0  0  0
  2 13  1  0  0  0  0
  3  7  2  0  0  0  0
  4  5  1  0  0  0  0
  4  6  1  0  0  0  0
  4 14  1  0  0  0  0
  5  7  1  0  0  0  0
  5 15  1  0  0  0  0
  6  8  2  0  0  0  0
  6  9  1  0  0  0  0
  8 10  1  0  0  0  0
  8 16  1  0  0  0  0
  9 11  2  0  0  0  0
  9 17  1  0  0  0  0
 10 12  2  0  0  0  0
 10 18  1  0  0  0  0
 11 12  1  0  0  0  0
 11 19  1  0  0  0  0
 12 20  1  0  0  0  0
 13 21  1  0  0  0  0
 13 22  1  0  0  0  0
 13 23  1  0  0  0  0
M  END
> <PUBCHEM_COMPOUND_CID>
86834

> <PUBCHEM_CONFORMER_RMSD>
0.6

> <PUBCHEM_CONFORMER_DIVERSEORDER>
1
5
14
9
12
4
8
10
3
13
11
7
2
6
15

> <PUBCHEM_MMFF94_PARTIAL_CHARGES>
20
1 -0.3
10 -0.15
11 -0.15
12 -0.15
13 0.28
14 0.1
15 0.1
16 0.15
17 0.15
18 0.15
19 0.15
2 -0.43
20 0.15
3 -0.57
4 0.08
5 0.05
6 -0.03
7 0.72
8 -0.15
9 -0.15

> <PUBCHEM_EFFECTIVE_ROTOR_COUNT>
3.6

> <PUBCHEM_PHARMACOPHORE_FEATURES>
3
1 1 acceptor
1 3 acceptor
6 6 8 9 10 11 12 rings

> <PUBCHEM_HEAVY_ATOM_COUNT>
13

> <PUBCHEM_ATOM_DEF_STEREO_COUNT>
0

> <PUBCHEM_ATOM_UDEF_STEREO_COUNT>
2

> <PUBCHEM_BOND_DEF_STEREO_COUNT>
0

> <PUBCHEM_BOND_UDEF_STEREO_COUNT>
0

> <PUBCHEM_ISOTOPIC_ATOM_COUNT>
0

> <PUBCHEM_COMPONENT_COUNT>
1

> <PUBCHEM_CACTVS_TAUTO_COUNT>
1

> <PUBCHEM_CONFORMER_ID>
0001533200000001

> <PUBCHEM_MMFF94_ENERGY>
26.9882

> <PUBCHEM_FEATURE_SELFOVERLAP>
15.227

> <PUBCHEM_SHAPE_FINGERPRINT>
10608611 8 18338232665669154909
11031198 65 17132115714684083863
11132069 177 18187081767164365469
12251169 10 18113338634638408053
12346645 44 18408882944963517306
12932764 1 17458900436088764414
13214271 11 18408602595684859231
13705890 14 9655573015630371006
13897977 13 18410295826227473389
13897977 58 18336833086130177357
14325111 11 18411135835767363478
14415576 193 18412829058009784484
14445660 50 18341901770815883769
15219456 202 18341897359309646103
15775835 57 18343302595494632176
18175812 5 18410012113335204111
18186145 218 18060147530873130994
20281407 28 8286188470508605559
20510252 161 18412547604713768753
20528008 55 18335697222357838589
20645464 45 18271530793265879223
20645477 56 18129377267241615568
20645477 70 17845940636948307910
20871998 184 18342744056989998079
21652331 79 18410012147689979249
23402539 116 18336820987909061055
23559900 14 18196367027007924290
449060 50 18410578370766767013
5104073 3 18408887317319216849
7364860 26 18194682557819298798
77779 3 18410858754626625130

> <PUBCHEM_SHAPE_MULTIPOLES>
249.93
7.65
1.61
0.69
3.59
0.21
-0.01
2.39
0.81
0.16
-0.03
-0.07
0
0.24

> <PUBCHEM_SHAPE_SELFOVERLAP>
522.779

> <PUBCHEM_SHAPE_VOLUME>
142.5

> <PUBCHEM_COORDINATE_TYPE>
2
5
10

$$$$
