86851
  -OEChem-11232109253D

 27 26  0     1  0  0  0  0  0999 V2000
   -0.4652   -0.3261   -0.3721 O   0  0  0  0  0  0  0  0  0  0  0  0
   -3.9115    0.5977   -0.0021 O   0  0  0  0  0  0  0  0  0  0  0  0
   -1.4627    1.4871    0.6455 O   0  0  0  0  0  0  0  0  0  0  0  0
    3.3163   -0.3824   -0.1787 C   0  0  0  0  0  0  0  0  0  0  0  0
    1.8775   -0.7984   -0.5255 C   0  0  0  0  0  0  0  0  0  0  0  0
    0.8182    0.1689   -0.0109 C   0  0  0  0  0  0  0  0  0  0  0  0
    3.6108    1.0030   -0.7585 C   0  0  0  0  0  0  0  0  0  0  0  0
    3.5738   -0.3770    1.3287 C   0  0  0  0  0  0  0  0  0  0  0  0
   -2.8275   -0.2258   -0.4032 C   0  0  1  0  0  0  0  0  0  0  0  0
   -1.5323    0.4365    0.0212 C   0  0  0  0  0  0  0  0  0  0  0  0
   -2.9974   -1.5836    0.2556 C   0  0  0  0  0  0  0  0  0  0  0  0
    3.9966   -1.1073   -0.6426 H   0  0  0  0  0  0  0  0  0  0  0  0
    1.6762   -1.8006   -0.1256 H   0  0  0  0  0  0  0  0  0  0  0  0
    1.7729   -0.8960   -1.6141 H   0  0  0  0  0  0  0  0  0  0  0  0
    0.8672    0.2539    1.0795 H   0  0  0  0  0  0  0  0  0  0  0  0
    0.9430    1.1601   -0.4584 H   0  0  0  0  0  0  0  0  0  0  0  0
    4.6797    1.2272   -0.6683 H   0  0  0  0  0  0  0  0  0  0  0  0
    3.0717    1.7993   -0.2357 H   0  0  0  0  0  0  0  0  0  0  0  0
    3.3545    1.0489   -1.8222 H   0  0  0  0  0  0  0  0  0  0  0  0
    3.0012    0.3999    1.8448 H   0  0  0  0  0  0  0  0  0  0  0  0
    4.6342   -0.1920    1.5324 H   0  0  0  0  0  0  0  0  0  0  0  0
    3.3142   -1.3448    1.7703 H   0  0  0  0  0  0  0  0  0  0  0  0
   -2.8398   -0.2991   -1.4956 H   0  0  0  0  0  0  0  0  0  0  0  0
   -3.9677   -2.0206   -0.0039 H   0  0  0  0  0  0  0  0  0  0  0  0
   -2.2109   -2.2817   -0.0475 H   0  0  0  0  0  0  0  0  0  0  0  0
   -2.9701   -1.4946    1.3476 H   0  0  0  0  0  0  0  0  0  0  0  0
   -4.7194    0.2352   -0.4040 H   0  0  0  0  0  0  0  0  0  0  0  0
  1  6  1  0  0  0  0
  1 10  1  0  0  0  0
  2  9  1  0  0  0  0
  2 27  1  0  0  0  0
  3 10  2  0  0  0  0
  4  5  1  0  0  0  0
  4  7  1  0  0  0  0
  4  8  1  0  0  0  0
  4 12  1  0  0  0  0
  5  6  1  0  0  0  0
  5 13  1  0  0  0  0
  5 14  1  0  0  0  0
  6 15  1  0  0  0  0
  6 16  1  0  0  0  0
  7 17  1  0  0  0  0
  7 18  1  0  0  0  0
  7 19  1  0  0  0  0
  8 20  1  0  0  0  0
  8 21  1  0  0  0  0
  8 22  1  0  0  0  0
  9 10  1  0  0  0  0
  9 11  1  0  0  0  0
  9 23  1  0  0  0  0
 11 24  1  0  0  0  0
 11 25  1  0  0  0  0
 11 26  1  0  0  0  0
M  END
> <PUBCHEM_COMPOUND_CID>
86851

> <PUBCHEM_CONFORMER_RMSD>
0.6

> <PUBCHEM_CONFORMER_DIVERSEORDER>
1
82
76
68
56
92
31
86
25
48
58
80
4
37
14
81
67
8
63
46
35
15
44
40
6
72
2
57
38
24
23
79
88
43
70
61
54
49
3
33
53
13
52
71
74
47
41
34
89
26
32
21
5
42
75
39
60
7
45
16
90
64
69
12
22
78
19
85
9
59
11
66
51
30
10
55
18
87
20
91
84
65
77
29
28
50
17
73
36
62
27
83

> <PUBCHEM_MMFF94_PARTIAL_CHARGES>
7
1 -0.43
10 0.66
2 -0.68
27 0.4
3 -0.57
6 0.28
9 0.34

> <PUBCHEM_EFFECTIVE_ROTOR_COUNT>
5

> <PUBCHEM_PHARMACOPHORE_FEATURES>
4
1 2 acceptor
1 2 donor
1 3 acceptor
3 4 7 8 hydrophobe

> <PUBCHEM_HEAVY_ATOM_COUNT>
11

> <PUBCHEM_ATOM_DEF_STEREO_COUNT>
0

> <PUBCHEM_ATOM_UDEF_STEREO_COUNT>
1

> <PUBCHEM_BOND_DEF_STEREO_COUNT>
0

> <PUBCHEM_BOND_UDEF_STEREO_COUNT>
0

> <PUBCHEM_ISOTOPIC_ATOM_COUNT>
0

> <PUBCHEM_COMPONENT_COUNT>
1

> <PUBCHEM_CACTVS_TAUTO_COUNT>
1

> <PUBCHEM_CONFORMER_ID>
0001534300000001

> <PUBCHEM_MMFF94_ENERGY>
10.4331

> <PUBCHEM_FEATURE_SELFOVERLAP>
20.305

> <PUBCHEM_SHAPE_FINGERPRINT>
10857977 72 18201716266792764514
11062470 55 17967534570937648869
12932764 1 17458064837553731350
14325111 11 18335140899180395350
177051 138 18335136484212711706
18186145 218 17821445759679975590
190213 19 18272933821283728790
19050596 39 18408319990889143594
20279233 1 17489864934058203310
20281407 28 17846500348153216687
20645477 70 14707204380049694402
22485316 2 17676202485268759926
22959321 105 18261109707656354087
23048698 100 17894631444274312248
3248919 1 18412262805200249190

> <PUBCHEM_SHAPE_MULTIPOLES>
208.77
7.76
1.24
0.91
0.38
0.04
-0.17
0.25
-0.34
-0.49
-0.08
0.7
0.02
-0.48

> <PUBCHEM_SHAPE_SELFOVERLAP>
386.65

> <PUBCHEM_SHAPE_VOLUME>
132.2

> <PUBCHEM_COORDINATE_TYPE>
2
5
10

$$$$
