86869
  -OEChem-11232108453D

 50 52  0     1  0  0  0  0  0999 V2000
   -2.2119   -0.3420   -0.7759 C   0  0  2  0  0  0  0  0  0  0  0  0
   -1.3715    0.9883   -0.7332 C   0  0  1  0  0  0  0  0  0  0  0  0
   -2.7093   -0.8894    0.6231 C   0  0  0  0  0  0  0  0  0  0  0  0
   -2.1123    2.0154    0.1687 C   0  0  0  0  0  0  0  0  0  0  0  0
   -3.3550    0.2623    1.4330 C   0  0  0  0  0  0  0  0  0  0  0  0
   -1.5213   -1.3814   -1.6781 C   0  0  0  0  0  0  0  0  0  0  0  0
   -2.4558    1.4838    1.5510 C   0  0  0  0  0  0  0  0  0  0  0  0
    0.0892    0.7125   -0.3559 C   0  0  0  0  0  0  0  0  0  0  0  0
   -0.0547   -1.6455   -1.3551 C   0  0  0  0  0  0  0  0  0  0  0  0
   -1.3173    1.6344   -2.1483 C   0  0  0  0  0  0  0  0  0  0  0  0
   -3.8119   -1.9562    0.4036 C   0  0  0  0  0  0  0  0  0  0  0  0
   -1.6249   -1.5500    1.4958 C   0  0  0  0  0  0  0  0  0  0  0  0
    0.6939   -0.5167   -0.6956 C   0  0  0  0  0  0  0  0  0  0  0  0
    0.8893    1.6925    0.2630 C   0  0  0  0  0  0  0  0  0  0  0  0
    2.0499   -0.7397   -0.3892 C   0  0  0  0  0  0  0  0  0  0  0  0
    2.8138    0.2391    0.2379 C   0  0  0  0  0  0  0  0  0  0  0  0
    2.2329    1.4565    0.5625 C   0  0  0  0  0  0  0  0  0  0  0  0
    4.2478   -0.0168    0.5547 C   0  0  0  0  0  0  0  0  0  0  0  0
    5.0952   -0.2654   -0.7078 C   0  0  0  0  0  0  0  0  0  0  0  0
    4.4340   -1.1816    1.5458 C   0  0  0  0  0  0  0  0  0  0  0  0
   -3.1423   -0.0805   -1.3062 H   0  0  0  0  0  0  0  0  0  0  0  0
   -3.0555    2.2990   -0.3209 H   0  0  0  0  0  0  0  0  0  0  0  0
   -1.5569    2.9541    0.2669 H   0  0  0  0  0  0  0  0  0  0  0  0
   -3.6273   -0.0807    2.4394 H   0  0  0  0  0  0  0  0  0  0  0  0
   -4.2955    0.5661    0.9532 H   0  0  0  0  0  0  0  0  0  0  0  0
   -1.5778   -1.0251   -2.7153 H   0  0  0  0  0  0  0  0  0  0  0  0
   -2.0669   -2.3305   -1.6958 H   0  0  0  0  0  0  0  0  0  0  0  0
   -1.5484    1.2524    2.1177 H   0  0  0  0  0  0  0  0  0  0  0  0
   -2.9842    2.2624    2.1140 H   0  0  0  0  0  0  0  0  0  0  0  0
    0.4598   -1.9123   -2.2876 H   0  0  0  0  0  0  0  0  0  0  0  0
    0.0147   -2.5281   -0.7089 H   0  0  0  0  0  0  0  0  0  0  0  0
   -0.7440    1.0366   -2.8653 H   0  0  0  0  0  0  0  0  0  0  0  0
   -2.3238    1.7726   -2.5597 H   0  0  0  0  0  0  0  0  0  0  0  0
   -0.8394    2.6215   -2.1129 H   0  0  0  0  0  0  0  0  0  0  0  0
   -4.6138   -1.5742   -0.2380 H   0  0  0  0  0  0  0  0  0  0  0  0
   -4.2674   -2.2528    1.3560 H   0  0  0  0  0  0  0  0  0  0  0  0
   -3.4158   -2.8659   -0.0582 H   0  0  0  0  0  0  0  0  0  0  0  0
   -2.0373   -1.8406    2.4702 H   0  0  0  0  0  0  0  0  0  0  0  0
   -0.7825   -0.8873    1.7015 H   0  0  0  0  0  0  0  0  0  0  0  0
   -1.2441   -2.4693    1.0440 H   0  0  0  0  0  0  0  0  0  0  0  0
    0.4906    2.6696    0.5164 H   0  0  0  0  0  0  0  0  0  0  0  0
    2.4953   -1.6979   -0.6495 H   0  0  0  0  0  0  0  0  0  0  0  0
    2.8101    2.2415    1.0439 H   0  0  0  0  0  0  0  0  0  0  0  0
    4.6681    0.8746    1.0405 H   0  0  0  0  0  0  0  0  0  0  0  0
    4.8012   -1.1858   -1.2239 H   0  0  0  0  0  0  0  0  0  0  0  0
    6.1554   -0.3538   -0.4469 H   0  0  0  0  0  0  0  0  0  0  0  0
    4.9911    0.5643   -1.4157 H   0  0  0  0  0  0  0  0  0  0  0  0
    3.8548   -1.0106    2.4600 H   0  0  0  0  0  0  0  0  0  0  0  0
    5.4877   -1.2801    1.8286 H   0  0  0  0  0  0  0  0  0  0  0  0
    4.1124   -2.1378    1.1190 H   0  0  0  0  0  0  0  0  0  0  0  0
  1  2  1  0  0  0  0
  1  3  1  0  0  0  0
  1  6  1  0  0  0  0
  1 21  1  0  0  0  0
  2  4  1  0  0  0  0
  2  8  1  0  0  0  0
  2 10  1  0  0  0  0
  3  5  1  0  0  0  0
  3 11  1  0  0  0  0
  3 12  1  0  0  0  0
  4  7  1  0  0  0  0
  4 22  1  0  0  0  0
  4 23  1  0  0  0  0
  5  7  1  0  0  0  0
  5 24  1  0  0  0  0
  5 25  1  0  0  0  0
  6  9  1  0  0  0  0
  6 26  1  0  0  0  0
  6 27  1  0  0  0  0
  7 28  1  0  0  0  0
  7 29  1  0  0  0  0
  8 13  2  0  0  0  0
  8 14  1  0  0  0  0
  9 13  1  0  0  0  0
  9 30  1  0  0  0  0
  9 31  1  0  0  0  0
 10 32  1  0  0  0  0
 10 33  1  0  0  0  0
 10 34  1  0  0  0  0
 11 35  1  0  0  0  0
 11 36  1  0  0  0  0
 11 37  1  0  0  0  0
 12 38  1  0  0  0  0
 12 39  1  0  0  0  0
 12 40  1  0  0  0  0
 13 15  1  0  0  0  0
 14 17  2  0  0  0  0
 14 41  1  0  0  0  0
 15 16  2  0  0  0  0
 15 42  1  0  0  0  0
 16 17  1  0  0  0  0
 16 18  1  0  0  0  0
 17 43  1  0  0  0  0
 18 19  1  0  0  0  0
 18 20  1  0  0  0  0
 18 44  1  0  0  0  0
 19 45  1  0  0  0  0
 19 46  1  0  0  0  0
 19 47  1  0  0  0  0
 20 48  1  0  0  0  0
 20 49  1  0  0  0  0
 20 50  1  0  0  0  0
M  END
> <PUBCHEM_COMPOUND_CID>
86869

> <PUBCHEM_CONFORMER_RMSD>
0.6

> <PUBCHEM_CONFORMER_DIVERSEORDER>
1
19
7
15
12
6
13
17
8
22
2
20
3
11
5
10
18
14
21
9
4
16

> <PUBCHEM_MMFF94_PARTIAL_CHARGES>
12
13 -0.14
14 -0.15
15 -0.15
16 -0.14
17 -0.15
18 0.14
2 0.14
41 0.15
42 0.15
43 0.15
8 -0.14
9 0.14

> <PUBCHEM_EFFECTIVE_ROTOR_COUNT>
2.2

> <PUBCHEM_PHARMACOPHORE_FEATURES>
5
3 18 19 20 hydrophobe
3 3 11 12 hydrophobe
6 1 2 3 4 5 7 rings
6 1 2 6 8 9 13 rings
6 8 13 14 15 16 17 rings

> <PUBCHEM_HEAVY_ATOM_COUNT>
20

> <PUBCHEM_ATOM_DEF_STEREO_COUNT>
0

> <PUBCHEM_ATOM_UDEF_STEREO_COUNT>
2

> <PUBCHEM_BOND_DEF_STEREO_COUNT>
0

> <PUBCHEM_BOND_UDEF_STEREO_COUNT>
0

> <PUBCHEM_ISOTOPIC_ATOM_COUNT>
0

> <PUBCHEM_COMPONENT_COUNT>
1

> <PUBCHEM_CACTVS_TAUTO_COUNT>
1

> <PUBCHEM_CONFORMER_ID>
0001535500000001

> <PUBCHEM_MMFF94_ENERGY>
70.8465

> <PUBCHEM_FEATURE_SELFOVERLAP>
25.441

> <PUBCHEM_SHAPE_FINGERPRINT>
10366900 7 18334016129029598610
10863032 1 17631746950036576859
10948715 1 16844178831344613121
12011746 2 18343025471462171965
12077114 3 18059860523688561897
12251169 10 18201726175435336083
12403814 3 18040719130076961804
12423570 1 9140383515521984173
12633257 1 18340786874341155313
12714826 92 18335133177145753844
12788726 201 13840802449892993535
128620 24 15719396152991024244
13024252 1 15864065443245396541
13140716 1 17913764196006219854
13224815 77 18410852175132321088
13296909 8 17561362902652943323
13583140 156 18115007646651490688
13675066 3 16988847172558606784
14004511 7 16486973990548617278
14289901 80 17240481395260009372
15209289 33 18333736827195446730
15209294 21 17203613665977882338
15309172 13 18131350812707891910
15375462 478 18269844275472714475
15534591 1 15984822601715550901
15653759 3 18334008393809062800
16945 1 18130235942487906199
1813 80 17968391116181094510
18186145 218 15626222421046185050
19862831 5 12901542438504605834
200 152 18059843000606862919
20261772 1 17988365965651197930
20281475 54 18186800266934633946
20775530 9 16591420065609255818
21033648 29 16845287194768131042
23402539 116 18341893030726637491
23419403 2 15550180325612903047
23493267 7 18116708513582387360
23557571 272 12535051092251377376
23559900 14 17677040330873425436
24859131 72 18411141350600577059
27216 239 18131631171008845481
2748010 2 17986963937832863908
3286 77 18199751504054547937
5104073 3 18342448219847832858
5706482 22 17489870427701001015

> <PUBCHEM_SHAPE_MULTIPOLES>
411.59
7.57
2.09
1.72
8.92
0.19
-0.22
-2.08
2.64
-1.38
0
-0.73
-0.08
-0.1

> <PUBCHEM_SHAPE_SELFOVERLAP>
867.974

> <PUBCHEM_SHAPE_VOLUME>
228.6

> <PUBCHEM_COORDINATE_TYPE>
2
5
10

$$$$
