86882
  -OEChem-11232108403D

 36 35  0     0  0  0  0  0  0999 V2000
    3.9472    0.4544    0.3390 O   0  0  0  0  0  0  0  0  0  0  0  0
    5.9532    0.0758   -0.7426 O   0  0  0  0  0  0  0  0  0  0  0  0
   -3.7980    0.2940   -0.3153 C   0  0  0  0  0  0  0  0  0  0  0  0
   -2.7849   -0.7246    0.2167 C   0  0  0  0  0  0  0  0  0  0  0  0
   -5.2211    0.0588    0.1961 C   0  0  0  0  0  0  0  0  0  0  0  0
   -1.3561   -0.4727   -0.2766 C   0  0  0  0  0  0  0  0  0  0  0  0
   -6.1873    1.1085   -0.3547 C   0  0  0  0  0  0  0  0  0  0  0  0
   -0.3488   -1.4914    0.2686 C   0  0  0  0  0  0  0  0  0  0  0  0
   -7.5973    0.8999    0.1745 C   0  0  0  0  0  0  0  0  0  0  0  0
    1.0378   -1.2884   -0.2704 C   0  0  0  0  0  0  0  0  0  0  0  0
    2.1061   -1.0279    0.4975 C   0  0  0  0  0  0  0  0  0  0  0  0
    3.4861   -0.8349   -0.0398 C   0  0  0  0  0  0  0  0  0  0  0  0
    5.2066    0.7844   -0.0813 C   0  0  0  0  0  0  0  0  0  0  0  0
    5.5565    2.1640    0.3882 C   0  0  0  0  0  0  0  0  0  0  0  0
   -3.7968    0.2606   -1.4118 H   0  0  0  0  0  0  0  0  0  0  0  0
   -3.4736    1.3022   -0.0289 H   0  0  0  0  0  0  0  0  0  0  0  0
   -3.0978   -1.7325   -0.0824 H   0  0  0  0  0  0  0  0  0  0  0  0
   -2.7950   -0.7017    1.3134 H   0  0  0  0  0  0  0  0  0  0  0  0
   -5.5560   -0.9430   -0.0981 H   0  0  0  0  0  0  0  0  0  0  0  0
   -5.2250    0.0927    1.2923 H   0  0  0  0  0  0  0  0  0  0  0  0
   -1.0452    0.5381    0.0164 H   0  0  0  0  0  0  0  0  0  0  0  0
   -1.3473   -0.4996   -1.3738 H   0  0  0  0  0  0  0  0  0  0  0  0
   -6.2024    1.0623   -1.4498 H   0  0  0  0  0  0  0  0  0  0  0  0
   -5.8454    2.1123   -0.0768 H   0  0  0  0  0  0  0  0  0  0  0  0
   -0.3487   -1.4476    1.3648 H   0  0  0  0  0  0  0  0  0  0  0  0
   -0.6734   -2.5031   -0.0038 H   0  0  0  0  0  0  0  0  0  0  0  0
   -7.6216    0.9742    1.2664 H   0  0  0  0  0  0  0  0  0  0  0  0
   -8.2713    1.6600   -0.2328 H   0  0  0  0  0  0  0  0  0  0  0  0
   -7.9820   -0.0841   -0.1119 H   0  0  0  0  0  0  0  0  0  0  0  0
    1.1604   -1.3713   -1.3475 H   0  0  0  0  0  0  0  0  0  0  0  0
    1.9846   -0.9532    1.5753 H   0  0  0  0  0  0  0  0  0  0  0  0
    3.5050   -0.9251   -1.1324 H   0  0  0  0  0  0  0  0  0  0  0  0
    4.1440   -1.5993    0.3897 H   0  0  0  0  0  0  0  0  0  0  0  0
    5.5379    2.1994    1.4803 H   0  0  0  0  0  0  0  0  0  0  0  0
    4.8541    2.8877   -0.0329 H   0  0  0  0  0  0  0  0  0  0  0  0
    6.5646    2.4182    0.0484 H   0  0  0  0  0  0  0  0  0  0  0  0
  1 12  1  0  0  0  0
  1 13  1  0  0  0  0
  2 13  2  0  0  0  0
  3  4  1  0  0  0  0
  3  5  1  0  0  0  0
  3 15  1  0  0  0  0
  3 16  1  0  0  0  0
  4  6  1  0  0  0  0
  4 17  1  0  0  0  0
  4 18  1  0  0  0  0
  5  7  1  0  0  0  0
  5 19  1  0  0  0  0
  5 20  1  0  0  0  0
  6  8  1  0  0  0  0
  6 21  1  0  0  0  0
  6 22  1  0  0  0  0
  7  9  1  0  0  0  0
  7 23  1  0  0  0  0
  7 24  1  0  0  0  0
  8 10  1  0  0  0  0
  8 25  1  0  0  0  0
  8 26  1  0  0  0  0
  9 27  1  0  0  0  0
  9 28  1  0  0  0  0
  9 29  1  0  0  0  0
 10 11  2  3  0  0  0
 10 30  1  0  0  0  0
 11 12  1  0  0  0  0
 11 31  1  0  0  0  0
 12 32  1  0  0  0  0
 12 33  1  0  0  0  0
 13 14  1  0  0  0  0
 14 34  1  0  0  0  0
 14 35  1  0  0  0  0
 14 36  1  0  0  0  0
M  END
> <PUBCHEM_COMPOUND_CID>
86882

> <PUBCHEM_CONFORMER_RMSD>
1

> <PUBCHEM_CONFORMER_DIVERSEORDER>
2
275
22
45
540
519
83
123
3
298
24
86
21
584
441
64
40
57
9
39
29
82
566
13
193
4
447
134
98
89
268
106
15
334
99
69
1
238
347
65
194
58
301
336
55
7
323
335
41
454
84
206
333
262
260
102
30
14
533
404
132
288
6
67
385
12
239
5
87
26
221
248
150
582
483
395
124
537
18
243
48
329
27
10
114

> <PUBCHEM_MMFF94_PARTIAL_CHARGES>
10
1 -0.43
10 -0.29
11 -0.29
12 0.42
13 0.66
14 0.06
2 -0.57
30 0.15
31 0.15
8 0.14

> <PUBCHEM_EFFECTIVE_ROTOR_COUNT>
9

> <PUBCHEM_PHARMACOPHORE_FEATURES>
2
1 2 acceptor
1 9 hydrophobe

> <PUBCHEM_HEAVY_ATOM_COUNT>
14

> <PUBCHEM_ATOM_DEF_STEREO_COUNT>
0

> <PUBCHEM_ATOM_UDEF_STEREO_COUNT>
0

> <PUBCHEM_BOND_DEF_STEREO_COUNT>
0

> <PUBCHEM_BOND_UDEF_STEREO_COUNT>
1

> <PUBCHEM_ISOTOPIC_ATOM_COUNT>
0

> <PUBCHEM_COMPONENT_COUNT>
1

> <PUBCHEM_CACTVS_TAUTO_COUNT>
1

> <PUBCHEM_CONFORMER_ID>
0001536200000002

> <PUBCHEM_MMFF94_ENERGY>
1.6191

> <PUBCHEM_FEATURE_SELFOVERLAP>
10.148

> <PUBCHEM_SHAPE_FINGERPRINT>
100836 57 18408324397446513358
10354089 29 17603304856194983574
106641 1 12612759038485651422
10753850 27 10447932754256108846
117890 112 18260547818586293283
12714333 28 18201718448889455859
13533116 47 17385998408815912754
13551218 46 11025787700130912864
13668630 136 10592043561877123517
13685833 64 9295287244300463151
13955234 65 18042116557906416034
13964095 4 13182742520782674043
14123256 34 9295292771818189880
14251732 16 18335140912745941699
14251764 18 12829499151108378851
14455015 7 10015863197675505151
14598715 104 17749655317547015613
15048467 5 18410573993751941729
15501527 16 18408604760570084787
155225 6 17898861407357450012
15690457 1 11674885511376674921
1768 124 12179843905180545185
1768 4 18340495559916421601
17810953 82 18189056555095411852
17834072 8 13902185985032335535
17834076 25 18131631171298995487
20281389 69 18260544506955628385
20526848 3 18411140246625280713
20605781 2 18409446990033352714
20735858 18 14634871942411812961
20767249 213 18409448077256138595
21130983 4 18410858742227000521
22224240 67 17748828527588518115
22896161 15 18409729578583174535
23272321 79 18409165532837943463
23402655 69 18130784572767538086
270888 7 18267019639049900544
2916195 48 18187080642420763657
293599 30 18409448089750851715
33532 11 9367340436677940293
3472631 163 18272372018102497620
351380 3 9583520910344557933
465052 167 8358255964546449288
5312510 48 18201435938847369560
59682541 52 17632311047104781262
6025842 7 18130789997433039910
6438161 24 12679181570558507220

> <PUBCHEM_SHAPE_MULTIPOLES>
276.37
19.88
1.64
0.71
13.19
0.42
0.01
13
0.46
-1.68
-0.15
-0.13
0
0.39

> <PUBCHEM_SHAPE_SELFOVERLAP>
505.158

> <PUBCHEM_SHAPE_VOLUME>
175.6

> <PUBCHEM_COORDINATE_TYPE>
2
5
10

$$$$
