87166
  -OEChem-11232109413D

 35 34  0     0  0  0  0  0  0999 V2000
    0.6858   -0.1707    0.2282 O   0  0  0  0  0  0  0  0  0  0  0  0
    3.1921    1.1693    0.5051 O   0  0  0  0  0  0  0  0  0  0  0  0
    4.2315   -0.8578   -0.2485 O   0  0  0  0  0  0  0  0  0  0  0  0
   -3.0165   -0.3693   -0.3805 C   0  0  0  0  0  0  0  0  0  0  0  0
   -1.7021    0.0039    0.3033 C   0  0  0  0  0  0  0  0  0  0  0  0
   -4.2531    0.1804    0.3360 C   0  0  0  0  0  0  0  0  0  0  0  0
   -0.5013   -0.5361   -0.4622 C   0  0  0  0  0  0  0  0  0  0  0  0
   -5.5697   -0.2138   -0.3346 C   0  0  0  0  0  0  0  0  0  0  0  0
    1.8460   -0.6480   -0.4397 C   0  0  0  0  0  0  0  0  0  0  0  0
   -6.7613    0.4154    0.3715 C   0  0  0  0  0  0  0  0  0  0  0  0
    3.0846   -0.2517    0.3624 C   0  0  0  0  0  0  0  0  0  0  0  0
    3.3348    1.8831   -0.7155 C   0  0  0  0  0  0  0  0  0  0  0  0
    5.4293   -0.6048    0.4747 C   0  0  0  0  0  0  0  0  0  0  0  0
   -3.0073    0.0046   -1.4119 H   0  0  0  0  0  0  0  0  0  0  0  0
   -3.0943   -1.4620   -0.4409 H   0  0  0  0  0  0  0  0  0  0  0  0
   -1.6866   -0.3829    1.3297 H   0  0  0  0  0  0  0  0  0  0  0  0
   -1.6170    1.0941    0.3915 H   0  0  0  0  0  0  0  0  0  0  0  0
   -4.1809    1.2745    0.3782 H   0  0  0  0  0  0  0  0  0  0  0  0
   -4.2561   -0.1761    1.3736 H   0  0  0  0  0  0  0  0  0  0  0  0
   -0.4811   -0.1156   -1.4745 H   0  0  0  0  0  0  0  0  0  0  0  0
   -0.5620   -1.6284   -0.5337 H   0  0  0  0  0  0  0  0  0  0  0  0
   -5.6768   -1.3045   -0.3288 H   0  0  0  0  0  0  0  0  0  0  0  0
   -5.5629    0.1070   -1.3827 H   0  0  0  0  0  0  0  0  0  0  0  0
    1.8029   -1.7414   -0.5219 H   0  0  0  0  0  0  0  0  0  0  0  0
    1.8847   -0.2494   -1.4596 H   0  0  0  0  0  0  0  0  0  0  0  0
   -7.6928    0.1195   -0.1213 H   0  0  0  0  0  0  0  0  0  0  0  0
   -6.8125    0.0936    1.4165 H   0  0  0  0  0  0  0  0  0  0  0  0
   -6.6982    1.5080    0.3505 H   0  0  0  0  0  0  0  0  0  0  0  0
    2.9797   -0.6532    1.3778 H   0  0  0  0  0  0  0  0  0  0  0  0
    3.6232    2.9099   -0.4729 H   0  0  0  0  0  0  0  0  0  0  0  0
    4.1117    1.4499   -1.3515 H   0  0  0  0  0  0  0  0  0  0  0  0
    2.3828    1.9239   -1.2516 H   0  0  0  0  0  0  0  0  0  0  0  0
    5.6742    0.4610    0.4702 H   0  0  0  0  0  0  0  0  0  0  0  0
    5.3407   -0.9672    1.5034 H   0  0  0  0  0  0  0  0  0  0  0  0
    6.2438   -1.1459   -0.0146 H   0  0  0  0  0  0  0  0  0  0  0  0
  1  7  1  0  0  0  0
  1  9  1  0  0  0  0
  2 11  1  0  0  0  0
  2 12  1  0  0  0  0
  3 11  1  0  0  0  0
  3 13  1  0  0  0  0
  4  5  1  0  0  0  0
  4  6  1  0  0  0  0
  4 14  1  0  0  0  0
  4 15  1  0  0  0  0
  5  7  1  0  0  0  0
  5 16  1  0  0  0  0
  5 17  1  0  0  0  0
  6  8  1  0  0  0  0
  6 18  1  0  0  0  0
  6 19  1  0  0  0  0
  7 20  1  0  0  0  0
  7 21  1  0  0  0  0
  8 10  1  0  0  0  0
  8 22  1  0  0  0  0
  8 23  1  0  0  0  0
  9 11  1  0  0  0  0
  9 24  1  0  0  0  0
  9 25  1  0  0  0  0
 10 26  1  0  0  0  0
 10 27  1  0  0  0  0
 10 28  1  0  0  0  0
 11 29  1  0  0  0  0
 12 30  1  0  0  0  0
 12 31  1  0  0  0  0
 12 32  1  0  0  0  0
 13 33  1  0  0  0  0
 13 34  1  0  0  0  0
 13 35  1  0  0  0  0
M  END
> <PUBCHEM_COMPOUND_CID>
87166

> <PUBCHEM_CONFORMER_RMSD>
0.8

> <PUBCHEM_CONFORMER_DIVERSEORDER>
1
56
134
206
52
70
198
12
172
128
126
211
174
19
119
184
179
11
67
189
148
3
164
74
215
48
24
138
157
137
214
200
108
165
37
22
90
170
209
210
156
7
50
124
180
152
99
61
166
125
100
84
122
26
66
71
58
194
158
75
216
195
96
186
204
190
98
139
117
16
121
43
173
29
112
120
213
169
45
155
153
149
111
201
15
81
101
167
197
196
62
72
102
95
4
132
17
87
123
159
94
68
97
145
175
85
40
78
60
88
76
182
162
140
192
160
86
92
39
64
49
187
118
141
133
131
93
163
65
151
207
5
105
191
8
168
144
54
34
143
177
199
38
107
27
171
2
18
79
106
89
130
129
28
113
77
46
135
32
80
193
31
83
185
44
115
59
47
142
212
9
202
55
188
203
178
154
73
161
42
6
25
208
36
41
176
21
30
114
63
82
181
110
51
14
127
53
20
33
116
91
104
205
69
103
10
183
146
35
147
13
136
109
23
150
57

> <PUBCHEM_MMFF94_PARTIAL_CHARGES>
8
1 -0.56
11 0.56
12 0.28
13 0.28
2 -0.56
3 -0.56
7 0.28
9 0.28

> <PUBCHEM_EFFECTIVE_ROTOR_COUNT>
9

> <PUBCHEM_PHARMACOPHORE_FEATURES>
5
1 1 acceptor
1 10 hydrophobe
1 2 acceptor
1 3 acceptor
4 4 5 6 8 hydrophobe

> <PUBCHEM_HEAVY_ATOM_COUNT>
13

> <PUBCHEM_ATOM_DEF_STEREO_COUNT>
0

> <PUBCHEM_ATOM_UDEF_STEREO_COUNT>
0

> <PUBCHEM_BOND_DEF_STEREO_COUNT>
0

> <PUBCHEM_BOND_UDEF_STEREO_COUNT>
0

> <PUBCHEM_ISOTOPIC_ATOM_COUNT>
0

> <PUBCHEM_COMPONENT_COUNT>
1

> <PUBCHEM_CACTVS_TAUTO_COUNT>
1

> <PUBCHEM_CONFORMER_ID>
0001547E00000001

> <PUBCHEM_MMFF94_ENERGY>
19.502

> <PUBCHEM_FEATURE_SELFOVERLAP>
25.407

> <PUBCHEM_SHAPE_FINGERPRINT>
10354089 29 18410572881824982026
11287383 113 18335142024989315123
114248 4 12103844562130469663
13081056 2 18186799184223314109
13167372 99 18341615871938968929
13533116 47 17095795530178216779
14123238 8 17275103925517867031
1420 363 17676491635953389371
14251718 22 11095879372163454327
14251764 46 15863789491506944595
15242439 84 17748547039056881939
17834072 33 18130785702955470447
17834076 25 16225767406704936883
19433438 28 17675919889701393133
20645477 70 17774728545518730567
212847 35 18272933847032673976
23402539 116 18060412517839625263
42788 4 18412825785745864659
522135 26 18407761439261723710
5374978 207 17748823029413304389
8209 1 17632574942342693403

> <PUBCHEM_SHAPE_MULTIPOLES>
249.93
15.46
1.14
0.77
14.83
0.58
0.02
0.64
-1.7
-1.57
0.16
-0.07
0.04
-0.43

> <PUBCHEM_SHAPE_SELFOVERLAP>
448.203

> <PUBCHEM_SHAPE_VOLUME>
162.2

> <PUBCHEM_COORDINATE_TYPE>
2
5
10

$$$$
