87466
  -OEChem-11232109273D

 19 19  0     0  0  0  0  0  0999 V2000
    0.5637    1.2114   -0.1686 N   0  0  0  0  0  0  0  0  0  0  0  0
    1.9828   -1.1884    0.1378 N   0  0  0  0  0  0  0  0  0  0  0  0
   -1.4710   -0.0086   -0.6805 C   0  0  0  0  0  0  0  0  0  0  0  0
   -2.3552   -0.0366    0.5669 C   0  0  0  0  0  0  0  0  0  0  0  0
   -0.0064    0.0094   -0.3253 C   0  0  0  0  0  0  0  0  0  0  0  0
   -3.8309   -0.0240    0.2015 C   0  0  0  0  0  0  0  0  0  0  0  0
    0.6729   -1.1695   -0.1792 C   0  0  0  0  0  0  0  0  0  0  0  0
    1.8735    1.1925    0.1485 C   0  0  0  0  0  0  0  0  0  0  0  0
    2.5705    0.0138    0.2988 C   0  0  0  0  0  0  0  0  0  0  0  0
   -1.6997    0.8838   -1.2770 H   0  0  0  0  0  0  0  0  0  0  0  0
   -1.6878   -0.8710   -1.3233 H   0  0  0  0  0  0  0  0  0  0  0  0
   -2.1394   -0.9318    1.1627 H   0  0  0  0  0  0  0  0  0  0  0  0
   -2.1352    0.8286    1.2042 H   0  0  0  0  0  0  0  0  0  0  0  0
   -4.0878    0.8783   -0.3626 H   0  0  0  0  0  0  0  0  0  0  0  0
   -4.0918   -0.8961   -0.4066 H   0  0  0  0  0  0  0  0  0  0  0  0
   -4.4457   -0.0451    1.1067 H   0  0  0  0  0  0  0  0  0  0  0  0
    0.2066   -2.1389   -0.3055 H   0  0  0  0  0  0  0  0  0  0  0  0
    2.3466    2.1581    0.2782 H   0  0  0  0  0  0  0  0  0  0  0  0
    3.6230   -0.0005    0.5536 H   0  0  0  0  0  0  0  0  0  0  0  0
  1  5  2  0  0  0  0
  1  8  1  0  0  0  0
  2  7  2  0  0  0  0
  2  9  1  0  0  0  0
  3  4  1  0  0  0  0
  3  5  1  0  0  0  0
  3 10  1  0  0  0  0
  3 11  1  0  0  0  0
  4  6  1  0  0  0  0
  4 12  1  0  0  0  0
  4 13  1  0  0  0  0
  5  7  1  0  0  0  0
  6 14  1  0  0  0  0
  6 15  1  0  0  0  0
  6 16  1  0  0  0  0
  7 17  1  0  0  0  0
  8  9  2  0  0  0  0
  8 18  1  0  0  0  0
  9 19  1  0  0  0  0
M  END
> <PUBCHEM_COMPOUND_CID>
87466

> <PUBCHEM_CONFORMER_RMSD>
0.4

> <PUBCHEM_CONFORMER_DIVERSEORDER>
1
10
7
9
6
8
3
5
4
2

> <PUBCHEM_MMFF94_PARTIAL_CHARGES>
10
1 -0.62
17 0.15
18 0.15
19 0.15
2 -0.62
3 0.14
5 0.17
7 0.16
8 0.16
9 0.16

> <PUBCHEM_EFFECTIVE_ROTOR_COUNT>
2

> <PUBCHEM_PHARMACOPHORE_FEATURES>
4
1 1 acceptor
1 2 acceptor
1 6 hydrophobe
6 1 2 5 7 8 9 rings

> <PUBCHEM_HEAVY_ATOM_COUNT>
9

> <PUBCHEM_ATOM_DEF_STEREO_COUNT>
0

> <PUBCHEM_ATOM_UDEF_STEREO_COUNT>
0

> <PUBCHEM_BOND_DEF_STEREO_COUNT>
0

> <PUBCHEM_BOND_UDEF_STEREO_COUNT>
0

> <PUBCHEM_ISOTOPIC_ATOM_COUNT>
0

> <PUBCHEM_COMPONENT_COUNT>
1

> <PUBCHEM_CACTVS_TAUTO_COUNT>
2

> <PUBCHEM_CONFORMER_ID>
000155AA00000001

> <PUBCHEM_MMFF94_ENERGY>
15.939

> <PUBCHEM_FEATURE_SELFOVERLAP>
20.301

> <PUBCHEM_SHAPE_FINGERPRINT>
10219947 1 18410575084689452695
10857977 72 17531245088755930205
11062470 55 15357697500407982495
12932764 1 18412824694433827093
14325111 11 18412263973605309927
20201158 50 18187083936275869891
20871998 22 17983862181456642294
21040471 1 18195522821315822548
23235685 24 18410570734077622368
29004967 10 18261109655984877456

> <PUBCHEM_SHAPE_MULTIPOLES>
175.25
4.84
1.18
0.73
4.15
0.01
-0.02
-0.09
0.86
-0.76
-0.01
0.16
0
-0.01

> <PUBCHEM_SHAPE_SELFOVERLAP>
349.683

> <PUBCHEM_SHAPE_VOLUME>
103.1

> <PUBCHEM_COORDINATE_TYPE>
2
5
10

$$$$
