87637
  -OEChem-11232109093D

 25 25  0     0  0  0  0  0  0999 V2000
    0.5854   -1.0729    0.2878 N   0  0  0  0  0  0  0  0  0  0  0  0
    1.4414    1.5433   -0.2497 N   0  0  0  0  0  0  0  0  0  0  0  0
   -1.6799   -0.3223    0.6651 C   0  0  0  0  0  0  0  0  0  0  0  0
   -2.5104   -0.6232   -0.5831 C   0  0  0  0  0  0  0  0  0  0  0  0
   -0.2441   -0.0204    0.3199 C   0  0  0  0  0  0  0  0  0  0  0  0
    0.1603    1.2612    0.0599 C   0  0  0  0  0  0  0  0  0  0  0  0
   -3.9500   -0.9563   -0.2250 C   0  0  0  0  0  0  0  0  0  0  0  0
    1.8664   -0.7908   -0.0220 C   0  0  0  0  0  0  0  0  0  0  0  0
   -0.7849    2.4127    0.1033 C   0  0  0  0  0  0  0  0  0  0  0  0
    2.2868    0.4943   -0.2859 C   0  0  0  0  0  0  0  0  0  0  0  0
    2.8289   -1.9256   -0.0704 C   0  0  0  0  0  0  0  0  0  0  0  0
   -1.6958   -1.1998    1.3255 H   0  0  0  0  0  0  0  0  0  0  0  0
   -2.1308    0.4861    1.2507 H   0  0  0  0  0  0  0  0  0  0  0  0
   -2.5014    0.2301   -1.2704 H   0  0  0  0  0  0  0  0  0  0  0  0
   -2.0732   -1.4687   -1.1285 H   0  0  0  0  0  0  0  0  0  0  0  0
   -3.9993   -1.8339    0.4275 H   0  0  0  0  0  0  0  0  0  0  0  0
   -4.4299   -0.1174    0.2892 H   0  0  0  0  0  0  0  0  0  0  0  0
   -4.5253   -1.1737   -1.1304 H   0  0  0  0  0  0  0  0  0  0  0  0
   -1.1724    2.5602    1.1162 H   0  0  0  0  0  0  0  0  0  0  0  0
   -0.2752    3.3387   -0.1859 H   0  0  0  0  0  0  0  0  0  0  0  0
   -1.6167    2.2737   -0.5926 H   0  0  0  0  0  0  0  0  0  0  0  0
    3.3149    0.7293   -0.5353 H   0  0  0  0  0  0  0  0  0  0  0  0
    3.6306   -1.7768    0.6599 H   0  0  0  0  0  0  0  0  0  0  0  0
    2.3315   -2.8729    0.1623 H   0  0  0  0  0  0  0  0  0  0  0  0
    3.2672   -2.0111   -1.0697 H   0  0  0  0  0  0  0  0  0  0  0  0
  1  5  2  0  0  0  0
  1  8  1  0  0  0  0
  2  6  2  0  0  0  0
  2 10  1  0  0  0  0
  3  4  1  0  0  0  0
  3  5  1  0  0  0  0
  3 12  1  0  0  0  0
  3 13  1  0  0  0  0
  4  7  1  0  0  0  0
  4 14  1  0  0  0  0
  4 15  1  0  0  0  0
  5  6  1  0  0  0  0
  6  9  1  0  0  0  0
  7 16  1  0  0  0  0
  7 17  1  0  0  0  0
  7 18  1  0  0  0  0
  8 10  2  0  0  0  0
  8 11  1  0  0  0  0
  9 19  1  0  0  0  0
  9 20  1  0  0  0  0
  9 21  1  0  0  0  0
 10 22  1  0  0  0  0
 11 23  1  0  0  0  0
 11 24  1  0  0  0  0
 11 25  1  0  0  0  0
M  END
> <PUBCHEM_COMPOUND_CID>
87637

> <PUBCHEM_CONFORMER_RMSD>
0.4

> <PUBCHEM_CONFORMER_DIVERSEORDER>
4
3
7
8
6
2
9
5
1

> <PUBCHEM_MMFF94_PARTIAL_CHARGES>
10
1 -0.62
10 0.16
11 0.14
2 -0.62
22 0.15
3 0.14
5 0.17
6 0.17
8 0.17
9 0.14

> <PUBCHEM_EFFECTIVE_ROTOR_COUNT>
2

> <PUBCHEM_PHARMACOPHORE_FEATURES>
4
1 1 acceptor
1 2 acceptor
1 7 hydrophobe
6 1 2 5 6 8 10 rings

> <PUBCHEM_HEAVY_ATOM_COUNT>
11

> <PUBCHEM_ATOM_DEF_STEREO_COUNT>
0

> <PUBCHEM_ATOM_UDEF_STEREO_COUNT>
0

> <PUBCHEM_BOND_DEF_STEREO_COUNT>
0

> <PUBCHEM_BOND_UDEF_STEREO_COUNT>
0

> <PUBCHEM_ISOTOPIC_ATOM_COUNT>
0

> <PUBCHEM_COMPONENT_COUNT>
1

> <PUBCHEM_CACTVS_TAUTO_COUNT>
2

> <PUBCHEM_CONFORMER_ID>
0001565500000004

> <PUBCHEM_MMFF94_ENERGY>
21.1203

> <PUBCHEM_FEATURE_SELFOVERLAP>
20.301

> <PUBCHEM_SHAPE_FINGERPRINT>
11206711 2 18189628154584666980
14128692 85 18341054021227662534
14576447 43 18127965519733442583
15477762 27 18267862959825089503
161256 15 18412541028781455472
16945 1 18336277841580063696
20201158 50 18260829340586234619
20645477 70 18410287043373073559
20871998 184 17986104106939625334
20871998 22 18271812259278433758
21501502 16 18337961069423212560
23402655 69 18410004477553083063
23552423 10 18188500068613316816
2748010 2 18337953364272878700

> <PUBCHEM_SHAPE_MULTIPOLES>
216.41
4.78
2.13
0.71
3.06
0.94
-0.01
-3.04
0.68
-0.55
0.04
0.15
-0.04
-0.21

> <PUBCHEM_SHAPE_SELFOVERLAP>
434.22

> <PUBCHEM_SHAPE_VOLUME>
128

> <PUBCHEM_COORDINATE_TYPE>
2
5
10

$$$$
