87632
  -OEChem-11232109193D

 29 28  0     0  0  0  0  0  0999 V2000
   -5.8670   -0.2545    0.2673 O   0  0  0  0  0  0  0  0  0  0  0  0
    3.6812   -0.2594    0.2716 C   0  0  0  0  0  0  0  0  0  0  0  0
    2.3310    0.0726   -0.3729 C   0  0  0  0  0  0  0  0  0  0  0  0
    4.8159    0.6558   -0.1966 C   0  0  0  0  0  0  0  0  0  0  0  0
    1.2072   -0.8842    0.0424 C   0  0  0  0  0  0  0  0  0  0  0  0
    6.1731    0.2906    0.3845 C   0  0  0  0  0  0  0  0  0  0  0  0
   -0.1327   -0.5170   -0.5300 C   0  0  0  0  0  0  0  0  0  0  0  0
   -1.2127   -0.2533    0.2208 C   0  0  0  0  0  0  0  0  0  0  0  0
   -2.5005    0.0878   -0.3397 C   0  0  0  0  0  0  0  0  0  0  0  0
   -3.5805    0.3515    0.4108 C   0  0  0  0  0  0  0  0  0  0  0  0
   -4.9149    0.7101   -0.1584 C   0  0  0  0  0  0  0  0  0  0  0  0
    3.5890   -0.1929    1.3626 H   0  0  0  0  0  0  0  0  0  0  0  0
    3.9415   -1.2993    0.0383 H   0  0  0  0  0  0  0  0  0  0  0  0
    2.4369    0.0512   -1.4650 H   0  0  0  0  0  0  0  0  0  0  0  0
    2.0529    1.1000   -0.1048 H   0  0  0  0  0  0  0  0  0  0  0  0
    4.5800    1.6920    0.0735 H   0  0  0  0  0  0  0  0  0  0  0  0
    4.8825    0.6204   -1.2906 H   0  0  0  0  0  0  0  0  0  0  0  0
    1.1565   -0.9228    1.1377 H   0  0  0  0  0  0  0  0  0  0  0  0
    1.4565   -1.8981   -0.2934 H   0  0  0  0  0  0  0  0  0  0  0  0
    6.1571    0.3484    1.4775 H   0  0  0  0  0  0  0  0  0  0  0  0
    6.4590   -0.7264    0.0984 H   0  0  0  0  0  0  0  0  0  0  0  0
    6.9418    0.9775    0.0173 H   0  0  0  0  0  0  0  0  0  0  0  0
   -0.2037   -0.4848   -1.6150 H   0  0  0  0  0  0  0  0  0  0  0  0
   -1.1354   -0.2940    1.3043 H   0  0  0  0  0  0  0  0  0  0  0  0
   -2.5783    0.1283   -1.4233 H   0  0  0  0  0  0  0  0  0  0  0  0
   -3.5094    0.3156    1.4958 H   0  0  0  0  0  0  0  0  0  0  0  0
   -4.9061    0.7313   -1.2527 H   0  0  0  0  0  0  0  0  0  0  0  0
   -5.2230    1.6934    0.2102 H   0  0  0  0  0  0  0  0  0  0  0  0
   -6.7275    0.0131   -0.0982 H   0  0  0  0  0  0  0  0  0  0  0  0
  1 11  1  0  0  0  0
  1 29  1  0  0  0  0
  2  3  1  0  0  0  0
  2  4  1  0  0  0  0
  2 12  1  0  0  0  0
  2 13  1  0  0  0  0
  3  5  1  0  0  0  0
  3 14  1  0  0  0  0
  3 15  1  0  0  0  0
  4  6  1  0  0  0  0
  4 16  1  0  0  0  0
  4 17  1  0  0  0  0
  5  7  1  0  0  0  0
  5 18  1  0  0  0  0
  5 19  1  0  0  0  0
  6 20  1  0  0  0  0
  6 21  1  0  0  0  0
  6 22  1  0  0  0  0
  7  8  2  3  0  0  0
  7 23  1  0  0  0  0
  8  9  1  0  0  0  0
  8 24  1  0  0  0  0
  9 10  2  3  0  0  0
  9 25  1  0  0  0  0
 10 11  1  0  0  0  0
 10 26  1  0  0  0  0
 11 27  1  0  0  0  0
 11 28  1  0  0  0  0
M  END
> <PUBCHEM_COMPOUND_CID>
87632

> <PUBCHEM_CONFORMER_RMSD>
0.6

> <PUBCHEM_CONFORMER_DIVERSEORDER>
1
50
155
53
99
60
41
136
93
76
4
30
156
163
18
95
27
140
5
126
36
151
39
48
8
86
160
6
94
57
148
67
32
100
43
21
46
22
66
159
69
98
68
96
145
162
111
28
71
152
14
35
143
80
102
158
58
138
81
49
15
144
51
130
107
45
2
147
123
55
109
128
115
110
106
161
59
164
97
63
154
29
134
157
121
13
105
149
73
113
75
25
11
146
64
56
47
125
24
54
88
62
26
141
10
87
85
17
124
122
150
7
118
117
119
3
42
153
20
31
33
38
116
133
78
34
120
19
90
70
139
104
89
79
114
92
101
84
135
103
16
23
127
137
72
77
44
74
65
131
132
91
83
40
9
82
37
52
112
129
61
142
12
108

> <PUBCHEM_MMFF94_PARTIAL_CHARGES>
12
1 -0.68
10 -0.29
11 0.42
23 0.15
24 0.15
25 0.15
26 0.15
29 0.4
5 0.14
7 -0.29
8 -0.15
9 -0.15

> <PUBCHEM_EFFECTIVE_ROTOR_COUNT>
6

> <PUBCHEM_PHARMACOPHORE_FEATURES>
4
1 1 acceptor
1 1 donor
1 6 hydrophobe
5 2 3 4 5 7 hydrophobe

> <PUBCHEM_HEAVY_ATOM_COUNT>
11

> <PUBCHEM_ATOM_DEF_STEREO_COUNT>
0

> <PUBCHEM_ATOM_UDEF_STEREO_COUNT>
0

> <PUBCHEM_BOND_DEF_STEREO_COUNT>
0

> <PUBCHEM_BOND_UDEF_STEREO_COUNT>
2

> <PUBCHEM_ISOTOPIC_ATOM_COUNT>
0

> <PUBCHEM_COMPONENT_COUNT>
1

> <PUBCHEM_CACTVS_TAUTO_COUNT>
1

> <PUBCHEM_CONFORMER_ID>
0001565000000001

> <PUBCHEM_MMFF94_ENERGY>
0.5543

> <PUBCHEM_FEATURE_SELFOVERLAP>
20.297

> <PUBCHEM_SHAPE_FINGERPRINT>
100836 57 18343304781959994540
10354089 29 18187365437407330488
114248 4 14764347137131789644
12714333 28 16486972899563653048
12815109 37 7925912577840946080
13964095 4 10735887161927505467
14123238 8 18408323285065684517
14251718 22 15339116848909584789
14252887 29 15068618250109240056
15242439 84 13758351180811179918
15501527 16 18130787884102634798
15501527 24 14333405662137793892
17834076 25 17989205945305729960
18342897 14 18334012800508818372
187816 3 14189576342600502934
20281389 69 18411979161671567312
20605781 2 18131350821582467968
20645477 56 18060698398909534015
20645477 70 16128106542211362286
20767249 13 13406794428078248539
20767249 213 18413389856274417040
21119208 17 14620793803829630860
21130983 4 18342179972452833120
212847 35 18410575115593377032
23402539 116 16588021329708148967
23557571 272 12895083902628644450
366044 4 18060419118587596470
42 15 14345797140813036726
42788 4 18335139790989084124
449060 50 18334576832382606790

> <PUBCHEM_SHAPE_MULTIPOLES>
220.51
14.68
0.83
0.71
1.46
0.01
0.01
-3.45
-1.71
0.08
0.01
0.05
0
0.01

> <PUBCHEM_SHAPE_SELFOVERLAP>
398.712

> <PUBCHEM_SHAPE_VOLUME>
141.4

> <PUBCHEM_COORDINATE_TYPE>
2
5
10

$$$$
