87762
  -OEChem-11232108593D

 19 18  0     0  0  0  0  0  0999 V2000
   -1.3213    0.7137   -0.0024 S   0  0  0  0  0  0  0  0  0  0  0  0
    3.8032    0.2495    0.0071 O   0  0  0  0  0  0  0  0  0  0  0  0
    1.4114    0.3878   -0.0041 C   0  0  0  0  0  0  0  0  0  0  0  0
    0.1095   -0.4039   -0.0006 C   0  0  0  0  0  0  0  0  0  0  0  0
    2.6209   -0.5385   -0.0042 C   0  0  0  0  0  0  0  0  0  0  0  0
   -2.6289   -0.5341    0.0023 C   0  0  0  0  0  0  0  0  0  0  0  0
   -3.9949    0.1255    0.0018 C   0  0  0  0  0  0  0  0  0  0  0  0
    1.4677    1.0469    0.8721 H   0  0  0  0  0  0  0  0  0  0  0  0
    1.4658    1.0443   -0.8822 H   0  0  0  0  0  0  0  0  0  0  0  0
    0.0604   -1.0398    0.8896 H   0  0  0  0  0  0  0  0  0  0  0  0
    0.0589   -1.0447   -0.8872 H   0  0  0  0  0  0  0  0  0  0  0  0
    2.6221   -1.1796    0.8831 H   0  0  0  0  0  0  0  0  0  0  0  0
    2.6305   -1.1684   -0.8995 H   0  0  0  0  0  0  0  0  0  0  0  0
   -2.5280   -1.1681   -0.8842 H   0  0  0  0  0  0  0  0  0  0  0  0
   -2.5263   -1.1633    0.8921 H   0  0  0  0  0  0  0  0  0  0  0  0
   -4.1404    0.7506    0.8895 H   0  0  0  0  0  0  0  0  0  0  0  0
   -4.1421    0.7456   -0.8891 H   0  0  0  0  0  0  0  0  0  0  0  0
   -4.7782   -0.6398    0.0047 H   0  0  0  0  0  0  0  0  0  0  0  0
    4.5561   -0.3659    0.0067 H   0  0  0  0  0  0  0  0  0  0  0  0
  1  4  1  0  0  0  0
  1  6  1  0  0  0  0
  2  5  1  0  0  0  0
  2 19  1  0  0  0  0
  3  4  1  0  0  0  0
  3  5  1  0  0  0  0
  3  8  1  0  0  0  0
  3  9  1  0  0  0  0
  4 10  1  0  0  0  0
  4 11  1  0  0  0  0
  5 12  1  0  0  0  0
  5 13  1  0  0  0  0
  6  7  1  0  0  0  0
  6 14  1  0  0  0  0
  6 15  1  0  0  0  0
  7 16  1  0  0  0  0
  7 17  1  0  0  0  0
  7 18  1  0  0  0  0
M  END
> <PUBCHEM_COMPOUND_CID>
87762

> <PUBCHEM_CONFORMER_RMSD>
0.6

> <PUBCHEM_CONFORMER_DIVERSEORDER>
1
33
34
28
21
6
31
36
2
4
38
19
16
39
18
14
9
37
3
30
13
8
23
32
5
35
22
20
24
7
15
10
26
11
27
17
29
25
12

> <PUBCHEM_MMFF94_PARTIAL_CHARGES>
6
1 -0.46
19 0.4
2 -0.68
4 0.23
5 0.28
6 0.23

> <PUBCHEM_EFFECTIVE_ROTOR_COUNT>
4

> <PUBCHEM_PHARMACOPHORE_FEATURES>
4
1 2 acceptor
1 2 donor
1 7 hydrophobe
4 1 3 4 6 hydrophobe

> <PUBCHEM_HEAVY_ATOM_COUNT>
7

> <PUBCHEM_ATOM_DEF_STEREO_COUNT>
0

> <PUBCHEM_ATOM_UDEF_STEREO_COUNT>
0

> <PUBCHEM_BOND_DEF_STEREO_COUNT>
0

> <PUBCHEM_BOND_UDEF_STEREO_COUNT>
0

> <PUBCHEM_ISOTOPIC_ATOM_COUNT>
0

> <PUBCHEM_COMPONENT_COUNT>
1

> <PUBCHEM_CACTVS_TAUTO_COUNT>
1

> <PUBCHEM_CONFORMER_ID>
000156D200000001

> <PUBCHEM_MMFF94_ENERGY>
4.3994

> <PUBCHEM_FEATURE_SELFOVERLAP>
20.297

> <PUBCHEM_SHAPE_FINGERPRINT>
11062470 55 17385443219720259637
12932764 1 15697706017989542148
14325111 11 18410856533922791782
20719005 15 18410575093901892459
21293036 1 15719114664565000229
5460574 1 9223229645999183846

> <PUBCHEM_SHAPE_MULTIPOLES>
142.04
6.98
0.84
0.62
0.06
0.03
0
-0.16
-0.01
0.09
0
0.07
0.01
0

> <PUBCHEM_SHAPE_SELFOVERLAP>
231.598

> <PUBCHEM_SHAPE_VOLUME>
99.3

> <PUBCHEM_COORDINATE_TYPE>
2
5
10

$$$$
