88038
  -OEChem-11232109233D

 32 31  0     0  0  0  0  0  0999 V2000
   -0.7835    0.0416    0.2112 C   0  0  0  0  0  0  0  0  0  0  0  0
    0.7837   -0.0417    0.2113 C   0  0  0  0  0  0  0  0  0  0  0  0
   -1.4438   -1.3594    0.2401 C   0  0  0  0  0  0  0  0  0  0  0  0
   -1.3606    0.8893   -0.9522 C   0  0  0  0  0  0  0  0  0  0  0  0
    1.3608   -0.8894   -0.9522 C   0  0  0  0  0  0  0  0  0  0  0  0
    1.4437    1.3594    0.2401 C   0  0  0  0  0  0  0  0  0  0  0  0
   -1.0288   -2.2129    1.4327 C   0  0  0  0  0  0  0  0  0  0  0  0
   -2.8756    1.0419   -0.9320 C   0  0  0  0  0  0  0  0  0  0  0  0
    2.8758   -1.0419   -0.9317 C   0  0  0  0  0  0  0  0  0  0  0  0
    1.0284    2.2131    1.4327 C   0  0  0  0  0  0  0  0  0  0  0  0
   -1.0843    0.5363    1.1445 H   0  0  0  0  0  0  0  0  0  0  0  0
    1.0844   -0.5363    1.1447 H   0  0  0  0  0  0  0  0  0  0  0  0
   -1.2593   -1.9028   -0.6929 H   0  0  0  0  0  0  0  0  0  0  0  0
   -2.5310   -1.2453    0.3145 H   0  0  0  0  0  0  0  0  0  0  0  0
   -1.0677    0.4561   -1.9152 H   0  0  0  0  0  0  0  0  0  0  0  0
   -0.9367    1.8980   -0.9174 H   0  0  0  0  0  0  0  0  0  0  0  0
    1.0679   -0.4563   -1.9152 H   0  0  0  0  0  0  0  0  0  0  0  0
    0.9368   -1.8981   -0.9173 H   0  0  0  0  0  0  0  0  0  0  0  0
    1.2592    1.9027   -0.6929 H   0  0  0  0  0  0  0  0  0  0  0  0
    2.5310    1.2456    0.3146 H   0  0  0  0  0  0  0  0  0  0  0  0
   -1.6395   -3.1210    1.4722 H   0  0  0  0  0  0  0  0  0  0  0  0
   -1.1692   -1.6708    2.3731 H   0  0  0  0  0  0  0  0  0  0  0  0
    0.0163   -2.5269    1.3630 H   0  0  0  0  0  0  0  0  0  0  0  0
   -3.1842    1.7891   -1.6709 H   0  0  0  0  0  0  0  0  0  0  0  0
   -3.2265    1.3740    0.0500 H   0  0  0  0  0  0  0  0  0  0  0  0
   -3.3811    0.1072   -1.1908 H   0  0  0  0  0  0  0  0  0  0  0  0
    3.2265   -1.3738    0.0503 H   0  0  0  0  0  0  0  0  0  0  0  0
    3.1846   -1.7890   -1.6705 H   0  0  0  0  0  0  0  0  0  0  0  0
    3.3812   -0.1071   -1.1905 H   0  0  0  0  0  0  0  0  0  0  0  0
    1.6392    3.1210    1.4722 H   0  0  0  0  0  0  0  0  0  0  0  0
    1.1687    1.6710    2.3732 H   0  0  0  0  0  0  0  0  0  0  0  0
   -0.0167    2.5271    1.3629 H   0  0  0  0  0  0  0  0  0  0  0  0
  1  2  1  0  0  0  0
  1  3  1  0  0  0  0
  1  4  1  0  0  0  0
  1 11  1  0  0  0  0
  2  5  1  0  0  0  0
  2  6  1  0  0  0  0
  2 12  1  0  0  0  0
  3  7  1  0  0  0  0
  3 13  1  0  0  0  0
  3 14  1  0  0  0  0
  4  8  1  0  0  0  0
  4 15  1  0  0  0  0
  4 16  1  0  0  0  0
  5  9  1  0  0  0  0
  5 17  1  0  0  0  0
  5 18  1  0  0  0  0
  6 10  1  0  0  0  0
  6 19  1  0  0  0  0
  6 20  1  0  0  0  0
  7 21  1  0  0  0  0
  7 22  1  0  0  0  0
  7 23  1  0  0  0  0
  8 24  1  0  0  0  0
  8 25  1  0  0  0  0
  8 26  1  0  0  0  0
  9 27  1  0  0  0  0
  9 28  1  0  0  0  0
  9 29  1  0  0  0  0
 10 30  1  0  0  0  0
 10 31  1  0  0  0  0
 10 32  1  0  0  0  0
M  END
> <PUBCHEM_COMPOUND_CID>
88038

> <PUBCHEM_CONFORMER_RMSD>
0.6

> <PUBCHEM_CONFORMER_DIVERSEORDER>
4
5
3
2
1

> <PUBCHEM_MMFF94_PARTIAL_CHARGES>
0

> <PUBCHEM_EFFECTIVE_ROTOR_COUNT>
5

> <PUBCHEM_PHARMACOPHORE_FEATURES>
6
1 10 hydrophobe
1 7 hydrophobe
1 8 hydrophobe
1 9 hydrophobe
3 1 3 4 hydrophobe
6 1 2 3 4 5 6 hydrophobe

> <PUBCHEM_HEAVY_ATOM_COUNT>
10

> <PUBCHEM_ATOM_DEF_STEREO_COUNT>
0

> <PUBCHEM_ATOM_UDEF_STEREO_COUNT>
0

> <PUBCHEM_BOND_DEF_STEREO_COUNT>
0

> <PUBCHEM_BOND_UDEF_STEREO_COUNT>
0

> <PUBCHEM_ISOTOPIC_ATOM_COUNT>
0

> <PUBCHEM_COMPONENT_COUNT>
1

> <PUBCHEM_CACTVS_TAUTO_COUNT>
1

> <PUBCHEM_CONFORMER_ID>
000157E600000004

> <PUBCHEM_MMFF94_ENERGY>
11.7302

> <PUBCHEM_FEATURE_SELFOVERLAP>
32.928

> <PUBCHEM_SHAPE_FINGERPRINT>
12423570 1 12563615128693454513
12716758 59 18187651258537672750
13380536 261 17547850754897984223
137420 1 16396650995643537867
13898156 1 16154258545951561370
14817 1 14100948390971972211
16945 1 18267021665424638167
18380122 1 17834114521338242682
20379382 53 17697632074363248842
20711978 78 17629786674958877102
20711985 344 17750520748502431971
21040471 1 17967803925711815965
21061003 4 17914926268596919706
21922407 69 16445574207665971600
21930827 45 18186517730573486757
23211744 25 18263918839595726837
23211744 41 18050544524880369897
2748010 2 18338799051501207724
3250762 1 18338799051501207552
430814 3 15430326784404571501
4369600 1 18053090736011962891
68419 9 16081639097166310129
81228 2 17897726698466413979

> <PUBCHEM_SHAPE_MULTIPOLES>
205.8
3.39
2.34
1.4
0
0
0.26
0
-1.46
0
1.14
0
0
1.53

> <PUBCHEM_SHAPE_SELFOVERLAP>
364.438

> <PUBCHEM_SHAPE_VOLUME>
136.7

> <PUBCHEM_COORDINATE_TYPE>
2
5
10

$$$$
