88168807
  -OEChem-11232108513D

 38 37  0     0  0  0  0  0  0999 V2000
    0.0641   -0.0463    0.1922 O   0  0  0  0  0  0  0  0  0  0  0  0
   -1.1793    1.7471   -0.5563 O   0  0  0  0  0  0  0  0  0  0  0  0
    5.0224   -0.3529    0.3325 C   0  0  0  0  0  0  0  0  0  0  0  0
    3.7868    0.5028   -0.0030 C   0  0  0  0  0  0  0  0  0  0  0  0
    2.4609   -0.2021    0.2860 C   0  0  0  0  0  0  0  0  0  0  0  0
   -4.8249   -0.4406    0.3708 C   0  0  0  0  0  0  0  0  0  0  0  0
   -3.6065    0.4104   -0.0304 C   0  0  0  0  0  0  0  0  0  0  0  0
   -2.2673   -0.2768    0.2432 C   0  0  0  0  0  0  0  0  0  0  0  0
    1.2704    0.6720   -0.0862 C   0  0  0  0  0  0  0  0  0  0  0  0
    5.0631   -1.6577   -0.4646 C   0  0  0  0  0  0  0  0  0  0  0  0
    6.2978    0.4517    0.0696 C   0  0  0  0  0  0  0  0  0  0  0  0
   -6.1134    0.3466    0.1199 C   0  0  0  0  0  0  0  0  0  0  0  0
   -4.8790   -1.7719   -0.3799 C   0  0  0  0  0  0  0  0  0  0  0  0
   -1.0952    0.6178   -0.0937 C   0  0  0  0  0  0  0  0  0  0  0  0
    4.9959   -0.6042    1.4004 H   0  0  0  0  0  0  0  0  0  0  0  0
    3.8196    0.7905   -1.0619 H   0  0  0  0  0  0  0  0  0  0  0  0
    3.8273    1.4341    0.5764 H   0  0  0  0  0  0  0  0  0  0  0  0
    2.3826   -1.1398   -0.2753 H   0  0  0  0  0  0  0  0  0  0  0  0
    2.3993   -0.4769    1.3460 H   0  0  0  0  0  0  0  0  0  0  0  0
   -4.7645   -0.6554    1.4452 H   0  0  0  0  0  0  0  0  0  0  0  0
   -3.6699    0.6693   -1.0956 H   0  0  0  0  0  0  0  0  0  0  0  0
   -3.6391    1.3612    0.5178 H   0  0  0  0  0  0  0  0  0  0  0  0
   -2.1713   -1.1807   -0.3668 H   0  0  0  0  0  0  0  0  0  0  0  0
   -2.2001   -0.5460    1.3030 H   0  0  0  0  0  0  0  0  0  0  0  0
    1.3038    0.9206   -1.1534 H   0  0  0  0  0  0  0  0  0  0  0  0
    1.2842    1.5972    0.5017 H   0  0  0  0  0  0  0  0  0  0  0  0
    4.2503   -2.3303   -0.1750 H   0  0  0  0  0  0  0  0  0  0  0  0
    6.0008   -2.1942   -0.2824 H   0  0  0  0  0  0  0  0  0  0  0  0
    4.9868   -1.4689   -1.5407 H   0  0  0  0  0  0  0  0  0  0  0  0
    6.3040    1.3746    0.6591 H   0  0  0  0  0  0  0  0  0  0  0  0
    7.1866   -0.1253    0.3464 H   0  0  0  0  0  0  0  0  0  0  0  0
    6.3859    0.7237   -0.9879 H   0  0  0  0  0  0  0  0  0  0  0  0
   -6.2346    0.5833   -0.9427 H   0  0  0  0  0  0  0  0  0  0  0  0
   -6.9892   -0.2271    0.4414 H   0  0  0  0  0  0  0  0  0  0  0  0
   -6.1092    1.2882    0.6791 H   0  0  0  0  0  0  0  0  0  0  0  0
   -4.8507   -1.6183   -1.4640 H   0  0  0  0  0  0  0  0  0  0  0  0
   -5.7996   -2.3152   -0.1402 H   0  0  0  0  0  0  0  0  0  0  0  0
   -4.0429   -2.4211   -0.1035 H   0  0  0  0  0  0  0  0  0  0  0  0
  1  9  1  0  0  0  0
  1 14  1  0  0  0  0
  2 14  2  0  0  0  0
  3  4  1  0  0  0  0
  3 10  1  0  0  0  0
  3 11  1  0  0  0  0
  3 15  1  0  0  0  0
  4  5  1  0  0  0  0
  4 16  1  0  0  0  0
  4 17  1  0  0  0  0
  5  9  1  0  0  0  0
  5 18  1  0  0  0  0
  5 19  1  0  0  0  0
  6  7  1  0  0  0  0
  6 12  1  0  0  0  0
  6 13  1  0  0  0  0
  6 20  1  0  0  0  0
  7  8  1  0  0  0  0
  7 21  1  0  0  0  0
  7 22  1  0  0  0  0
  8 14  1  0  0  0  0
  8 23  1  0  0  0  0
  8 24  1  0  0  0  0
  9 25  1  0  0  0  0
  9 26  1  0  0  0  0
 10 27  1  0  0  0  0
 10 28  1  0  0  0  0
 10 29  1  0  0  0  0
 11 30  1  0  0  0  0
 11 31  1  0  0  0  0
 11 32  1  0  0  0  0
 12 33  1  0  0  0  0
 12 34  1  0  0  0  0
 12 35  1  0  0  0  0
 13 36  1  0  0  0  0
 13 37  1  0  0  0  0
 13 38  1  0  0  0  0
M  END
> <PUBCHEM_COMPOUND_CID>
88168807

> <PUBCHEM_CONFORMER_RMSD>
0.8

> <PUBCHEM_CONFORMER_DIVERSEORDER>
1
210
243
149
150
213
62
379
10
296
58
14
333
116
389
330
54
151
38
311
401
70
20
244
275
365
92
380
312
122
91
12
207
303
208
97
180
39
377
52
314
121
265
229
405
26
239
306
399
329
398
308
373
378
359
106
169
42
350
112
69
176
167
295
43
216
375
221
126
53
37
353
360
183
107
348
117
6
205
156
305
98
76
396
23
344
161
164
139
332
391
397
95
364
141
113
374
136
55
277
376
2
163
259
206
323
188
253
140
222
63
408
147
293
247
68
403
111
71
357
402
201
124
144
325
209
195
11
128
8
240
115
406
328
304
174
25
258
29
320
148
51
385
255
153
366
291
67
127
28
235
393
351
218
284
138
132
134
321
394
130
307
60
155
225
101
66
16
315
361
232
237
252
21
278
5
371
178
301
48
261
390
142
196
395
47
217
105
82
80
246
4
32
372
241
133
262
349
383
137
231
193
41
3
22
187
347
114
104
276
302
367
172
370
219
65
75
270
135
45
266
227
318
202
286
72
40
274
89
273
190
290
212
27
319
294
335
36
31
171
269
381
223
409
84
159
310
119
33
298
341
109
211
288
230
49
19
78
192
100
309
283
289
369
249
355
250
17
30
384
331
61
354
342
56
285
18
272
24
233
131
358
338
81
248
15
173
257
110
356
382
346
9
317
145
204
228
324
224
226
215
316
129
185
88
404
64
267
214
203
182
77
326
264
254
234
407
336
152
279
35
44
108
46
282
175
170
79
7
87
245
238
343
86
292
281
13
146
179
186
337
387
94
236
34
199
268
50
334
242
220
271
400
197
191
189
345
299
90
184
388
123
99
263
125
118
251
340
143
74
200
59
177
260
362
322
83
85
198
194
313
327
392
73
368
363
93
287
154
120
168
386
280
165
339
103
181
158
57
166
256
297
102
300
352
157
162
160
96

> <PUBCHEM_MMFF94_PARTIAL_CHARGES>
5
1 -0.43
14 0.66
2 -0.57
8 0.06
9 0.28

> <PUBCHEM_EFFECTIVE_ROTOR_COUNT>
8

> <PUBCHEM_PHARMACOPHORE_FEATURES>
3
1 2 acceptor
3 3 10 11 hydrophobe
3 6 12 13 hydrophobe

> <PUBCHEM_HEAVY_ATOM_COUNT>
14

> <PUBCHEM_ATOM_DEF_STEREO_COUNT>
0

> <PUBCHEM_ATOM_UDEF_STEREO_COUNT>
0

> <PUBCHEM_BOND_DEF_STEREO_COUNT>
0

> <PUBCHEM_BOND_UDEF_STEREO_COUNT>
0

> <PUBCHEM_ISOTOPIC_ATOM_COUNT>
0

> <PUBCHEM_COMPONENT_COUNT>
1

> <PUBCHEM_CACTVS_TAUTO_COUNT>
1

> <PUBCHEM_CONFORMER_ID>
0541596700000001

> <PUBCHEM_MMFF94_ENERGY>
10.7751

> <PUBCHEM_FEATURE_SELFOVERLAP>
15.223

> <PUBCHEM_SHAPE_FINGERPRINT>
10354089 29 13398630554563830066
10968037 39 18187366549149680479
11287383 113 18413388756852369208
117890 112 8646772196636640638
12091667 2 17821446863718627145
12714333 28 13984661460185688864
12815109 37 18260548926445113195
13288520 33 18410575085053547037
13533116 47 17060342873342835590
13740256 8 18338234972319573059
13862211 1 18259980483197242258
14123238 8 18202002127448003520
1420 363 17967256394453643099
14251718 22 18187082862729023016
14251732 16 18272087253497310040
14251752 14 17676478411675258069
14251764 18 18202286905639745251
14251764 46 15719392837144448553
15242439 84 8718824306507597344
17834072 33 18410294739553060444
17834072 8 18113611288511759837
17834076 25 8646771092792946968
187816 3 16587743135812243329
200 152 17822008709411902633
20621476 30 18262240031496569475
20645477 56 11024107646468795552
20645477 70 18270684156871078270
20767249 213 11167936965689692418
212847 35 9799687109112299010
220451 1 18272938227883452582
22896161 15 18339079397407915072
23035841 295 18260547823087054147
23402539 116 18408318900188886109
23559900 14 18341887541484010153
26918003 58 17704355481088697795
42788 4 18409730664059699272
4463277 17 18335138695762218405
49783359 22 18060135462046983279
5104073 3 18128810851317931528
57483677 66 18412543210556309002
59755656 520 10952047840729055461
8209 1 18334294270779046624

> <PUBCHEM_SHAPE_MULTIPOLES>
276.37
16.79
1.35
0.68
3.27
0.39
0
3.86
-0.38
-0.22
0.26
0
0.02
0.12

> <PUBCHEM_SHAPE_SELFOVERLAP>
507.344

> <PUBCHEM_SHAPE_VOLUME>
176.5

> <PUBCHEM_COORDINATE_TYPE>
2
5
10

$$$$
