88267
  -OEChem-11232109263D

 22 22  0     0  0  0  0  0  0999 V2000
    3.7787    0.3095   -0.2016 O   0  0  0  0  0  0  0  0  0  0  0  0
    0.0638    0.2128    0.3116 C   0  0  0  0  0  0  0  0  0  0  0  0
    1.5202    0.1993    0.6420 C   0  0  0  0  0  0  0  0  0  0  0  0
   -0.6279   -0.9739    0.0682 C   0  0  0  0  0  0  0  0  0  0  0  0
   -0.6048    1.4354    0.2480 C   0  0  0  0  0  0  0  0  0  0  0  0
    2.4132    0.2930   -0.5979 C   0  0  0  0  0  0  0  0  0  0  0  0
   -1.9882   -0.9377   -0.2387 C   0  0  0  0  0  0  0  0  0  0  0  0
    0.0665   -2.2948    0.1295 C   0  0  0  0  0  0  0  0  0  0  0  0
   -1.9650    1.4715   -0.0588 C   0  0  0  0  0  0  0  0  0  0  0  0
   -2.6566    0.2849   -0.3022 C   0  0  0  0  0  0  0  0  0  0  0  0
    1.7938   -0.6789    1.2388 H   0  0  0  0  0  0  0  0  0  0  0  0
    1.7551    1.0398    1.3100 H   0  0  0  0  0  0  0  0  0  0  0  0
   -0.0782    2.3681    0.4330 H   0  0  0  0  0  0  0  0  0  0  0  0
    2.2139    1.2149   -1.1544 H   0  0  0  0  0  0  0  0  0  0  0  0
    2.2603   -0.5482   -1.2807 H   0  0  0  0  0  0  0  0  0  0  0  0
   -2.5426   -1.8526   -0.4306 H   0  0  0  0  0  0  0  0  0  0  0  0
    0.9245   -2.3252   -0.5481 H   0  0  0  0  0  0  0  0  0  0  0  0
    0.3957   -2.5103    1.1512 H   0  0  0  0  0  0  0  0  0  0  0  0
   -0.5991   -3.1119   -0.1715 H   0  0  0  0  0  0  0  0  0  0  0  0
   -2.4855    2.4234   -0.1089 H   0  0  0  0  0  0  0  0  0  0  0  0
   -3.7158    0.3132   -0.5412 H   0  0  0  0  0  0  0  0  0  0  0  0
    3.9554   -0.5213    0.2719 H   0  0  0  0  0  0  0  0  0  0  0  0
  1  6  1  0  0  0  0
  1 22  1  0  0  0  0
  2  3  1  0  0  0  0
  2  4  1  0  0  0  0
  2  5  2  0  0  0  0
  3  6  1  0  0  0  0
  3 11  1  0  0  0  0
  3 12  1  0  0  0  0
  4  7  2  0  0  0  0
  4  8  1  0  0  0  0
  5  9  1  0  0  0  0
  5 13  1  0  0  0  0
  6 14  1  0  0  0  0
  6 15  1  0  0  0  0
  7 10  1  0  0  0  0
  7 16  1  0  0  0  0
  8 17  1  0  0  0  0
  8 18  1  0  0  0  0
  8 19  1  0  0  0  0
  9 10  2  0  0  0  0
  9 20  1  0  0  0  0
 10 21  1  0  0  0  0
M  END
> <PUBCHEM_COMPOUND_CID>
88267

> <PUBCHEM_CONFORMER_RMSD>
0.4

> <PUBCHEM_CONFORMER_DIVERSEORDER>
1
4
8
6
9
7
2
5
3

> <PUBCHEM_MMFF94_PARTIAL_CHARGES>
15
1 -0.68
10 -0.15
13 0.15
16 0.15
2 -0.14
20 0.15
21 0.15
22 0.4
3 0.14
4 -0.14
5 -0.15
6 0.28
7 -0.15
8 0.14
9 -0.15

> <PUBCHEM_EFFECTIVE_ROTOR_COUNT>
2

> <PUBCHEM_PHARMACOPHORE_FEATURES>
3
1 1 acceptor
1 1 donor
6 2 4 5 7 9 10 rings

> <PUBCHEM_HEAVY_ATOM_COUNT>
10

> <PUBCHEM_ATOM_DEF_STEREO_COUNT>
0

> <PUBCHEM_ATOM_UDEF_STEREO_COUNT>
0

> <PUBCHEM_BOND_DEF_STEREO_COUNT>
0

> <PUBCHEM_BOND_UDEF_STEREO_COUNT>
0

> <PUBCHEM_ISOTOPIC_ATOM_COUNT>
0

> <PUBCHEM_COMPONENT_COUNT>
1

> <PUBCHEM_CACTVS_TAUTO_COUNT>
1

> <PUBCHEM_CONFORMER_ID>
000158CB00000001

> <PUBCHEM_MMFF94_ENERGY>
23.1896

> <PUBCHEM_FEATURE_SELFOVERLAP>
15.223

> <PUBCHEM_SHAPE_FINGERPRINT>
11206711 2 18338501019863538101
12423570 1 11732391214485022369
12716758 59 18340203085227258858
12897270 3 18412259527897622149
13024252 1 12107781934575469501
14325111 11 18410012100655984768
15775835 57 18113618954416797580
16945 1 18341037567392535513
20201158 50 17918279757491529958
20645464 45 17916564562133139064
20645476 183 17894911862399203570
20871998 184 18127699429002460406
21040471 1 18339631244622982505
23235685 24 18408600340552858509
23402539 116 18341320171681888268
23552423 10 18120368753257467987
23559900 14 18272931614562030160
2748010 2 17978494653589181357
29004967 10 15985105227627543152
369184 2 18202003239464809504
5084963 1 18131069367758912033

> <PUBCHEM_SHAPE_MULTIPOLES>
199.93
4.09
1.8
0.72
3.2
0.79
-0.01
-1.06
0.78
-0.6
-0.09
0.11
-0.03
-0.08

> <PUBCHEM_SHAPE_SELFOVERLAP>
405.795

> <PUBCHEM_SHAPE_VOLUME>
117.4

> <PUBCHEM_COORDINATE_TYPE>
2
5
10

$$$$
