88290
  -OEChem-11232108553D

 20 19  0     0  0  0  0  0  0999 V2000
   -2.4936    1.1907    0.1138 S   0  0  0  0  0  0  0  0  0  0  0  0
    1.5911   -1.1832    0.0213 O   0  0  0  0  0  0  0  0  0  0  0  0
   -1.0975   -0.0152   -0.0108 C   0  0  0  0  0  0  0  0  0  0  0  0
    0.2016    0.8156    0.0280 C   0  0  0  0  0  0  0  0  0  0  0  0
   -1.2178   -0.9678    1.1845 C   0  0  0  0  0  0  0  0  0  0  0  0
   -1.2705   -0.7682   -1.3350 C   0  0  0  0  0  0  0  0  0  0  0  0
    1.5176    0.0433    0.0130 C   0  0  0  0  0  0  0  0  0  0  0  0
    2.7691    0.8848   -0.0148 C   0  0  0  0  0  0  0  0  0  0  0  0
    0.2255    1.4287    0.9391 H   0  0  0  0  0  0  0  0  0  0  0  0
    0.2335    1.4960   -0.8335 H   0  0  0  0  0  0  0  0  0  0  0  0
   -1.0601   -0.4448    2.1350 H   0  0  0  0  0  0  0  0  0  0  0  0
   -2.2053   -1.4442    1.2222 H   0  0  0  0  0  0  0  0  0  0  0  0
   -0.4884   -1.7816    1.1344 H   0  0  0  0  0  0  0  0  0  0  0  0
   -1.1980   -0.0954   -2.1976 H   0  0  0  0  0  0  0  0  0  0  0  0
   -2.2382   -1.2816   -1.3858 H   0  0  0  0  0  0  0  0  0  0  0  0
   -0.4997   -1.5360   -1.4592 H   0  0  0  0  0  0  0  0  0  0  0  0
   -2.2097    1.8794   -1.0016 H   0  0  0  0  0  0  0  0  0  0  0  0
    2.7993    1.5260    0.8695 H   0  0  0  0  0  0  0  0  0  0  0  0
    2.7820    1.4924   -0.9230 H   0  0  0  0  0  0  0  0  0  0  0  0
    3.6501    0.2369   -0.0107 H   0  0  0  0  0  0  0  0  0  0  0  0
  1  3  1  0  0  0  0
  1 17  1  0  0  0  0
  2  7  2  0  0  0  0
  3  4  1  0  0  0  0
  3  5  1  0  0  0  0
  3  6  1  0  0  0  0
  4  7  1  0  0  0  0
  4  9  1  0  0  0  0
  4 10  1  0  0  0  0
  5 11  1  0  0  0  0
  5 12  1  0  0  0  0
  5 13  1  0  0  0  0
  6 14  1  0  0  0  0
  6 15  1  0  0  0  0
  6 16  1  0  0  0  0
  7  8  1  0  0  0  0
  8 18  1  0  0  0  0
  8 19  1  0  0  0  0
  8 20  1  0  0  0  0
M  END
> <PUBCHEM_COMPOUND_CID>
88290

> <PUBCHEM_CONFORMER_RMSD>
0.4

> <PUBCHEM_CONFORMER_DIVERSEORDER>
1
6
11
10
4
7
9
5
8
2
3

> <PUBCHEM_MMFF94_PARTIAL_CHARGES>
7
1 -0.41
17 0.18
2 -0.57
3 0.23
4 0.06
7 0.45
8 0.06

> <PUBCHEM_EFFECTIVE_ROTOR_COUNT>
2

> <PUBCHEM_PHARMACOPHORE_FEATURES>
2
1 2 acceptor
3 3 5 6 hydrophobe

> <PUBCHEM_HEAVY_ATOM_COUNT>
8

> <PUBCHEM_ATOM_DEF_STEREO_COUNT>
0

> <PUBCHEM_ATOM_UDEF_STEREO_COUNT>
0

> <PUBCHEM_BOND_DEF_STEREO_COUNT>
0

> <PUBCHEM_BOND_UDEF_STEREO_COUNT>
0

> <PUBCHEM_ISOTOPIC_ATOM_COUNT>
0

> <PUBCHEM_COMPONENT_COUNT>
1

> <PUBCHEM_CACTVS_TAUTO_COUNT>
3

> <PUBCHEM_CONFORMER_ID>
000158E200000001

> <PUBCHEM_MMFF94_ENERGY>
16.9182

> <PUBCHEM_FEATURE_SELFOVERLAP>
10.148

> <PUBCHEM_SHAPE_FINGERPRINT>
12932764 1 17917153904829457320
14390081 3 18343299284043458424
15310529 11 18342174479379279647
20645464 45 18040434382361122848
20653085 51 17988090967522145001
21040471 1 18113905918176855785
23235685 24 18186517713414911440
23552423 10 18340763750068486494
24536 1 18114176475388891448
29004967 10 18334583476897304848
3248919 1 18114456855486616700
369184 2 16009019627017148024
5084963 1 18265615373226635001

> <PUBCHEM_SHAPE_MULTIPOLES>
162.62
3.58
1.33
1.02
1.42
0.02
-0.08
1.19
0.03
-0.25
0.06
-0.51
-0.35
-0.04

> <PUBCHEM_SHAPE_SELFOVERLAP>
288.521

> <PUBCHEM_SHAPE_VOLUME>
108.3

> <PUBCHEM_COORDINATE_TYPE>
2
5
10

$$$$
