88301
  -OEChem-11232109123D

 27 28  0     1  0  0  0  0  0999 V2000
    2.7452   -1.3244    0.1326 O   0  0  0  0  0  0  0  0  0  0  0  0
   -1.1270   -0.6690    0.1977 C   0  0  0  0  0  0  0  0  0  0  0  0
   -1.5465    0.8104   -0.0811 C   0  0  2  0  0  0  0  0  0  0  0  0
    0.0436   -0.3677   -0.7996 C   0  0  1  0  0  0  0  0  0  0  0  0
   -1.0014    0.5495   -1.5225 C   0  0  0  0  0  0  0  0  0  0  0  0
   -0.7060    1.8324    0.7045 C   0  0  0  0  0  0  0  0  0  0  0  0
    1.1489    0.4227   -0.1594 C   0  0  0  0  0  0  0  0  0  0  0  0
   -2.1210   -1.7069   -0.3025 C   0  0  0  0  0  0  0  0  0  0  0  0
   -0.7566   -1.0279    1.6228 C   0  0  0  0  0  0  0  0  0  0  0  0
    0.7583    1.4871    0.5663 C   0  0  0  0  0  0  0  0  0  0  0  0
    2.5625   -0.0063   -0.3587 C   0  0  0  0  0  0  0  0  0  0  0  0
   -2.6193    1.0215   -0.0244 H   0  0  0  0  0  0  0  0  0  0  0  0
    0.3994   -1.2156   -1.3932 H   0  0  0  0  0  0  0  0  0  0  0  0
   -0.5964    1.4255   -2.0426 H   0  0  0  0  0  0  0  0  0  0  0  0
   -1.6799    0.0608   -2.2277 H   0  0  0  0  0  0  0  0  0  0  0  0
   -0.9942    1.8386    1.7609 H   0  0  0  0  0  0  0  0  0  0  0  0
   -0.8786    2.8390    0.3077 H   0  0  0  0  0  0  0  0  0  0  0  0
   -2.4683   -1.5594   -1.3276 H   0  0  0  0  0  0  0  0  0  0  0  0
   -1.6813   -2.7108   -0.2667 H   0  0  0  0  0  0  0  0  0  0  0  0
   -3.0172   -1.7191    0.3292 H   0  0  0  0  0  0  0  0  0  0  0  0
   -0.0447   -0.3607    2.1113 H   0  0  0  0  0  0  0  0  0  0  0  0
   -1.6486   -1.0408    2.2607 H   0  0  0  0  0  0  0  0  0  0  0  0
   -0.3129   -2.0300    1.6645 H   0  0  0  0  0  0  0  0  0  0  0  0
    1.4847    2.1187    1.0673 H   0  0  0  0  0  0  0  0  0  0  0  0
    3.2703    0.6536    0.1534 H   0  0  0  0  0  0  0  0  0  0  0  0
    2.8119   -0.0005   -1.4244 H   0  0  0  0  0  0  0  0  0  0  0  0
    2.5332   -1.3188    1.0818 H   0  0  0  0  0  0  0  0  0  0  0  0
  1 11  1  0  0  0  0
  1 27  1  0  0  0  0
  2  3  1  0  0  0  0
  2  4  1  0  0  0  0
  2  8  1  0  0  0  0
  2  9  1  0  0  0  0
  3  5  1  0  0  0  0
  3  6  1  0  0  0  0
  3 12  1  0  0  0  0
  4  5  1  0  0  0  0
  4  7  1  0  0  0  0
  4 13  1  0  0  0  0
  5 14  1  0  0  0  0
  5 15  1  0  0  0  0
  6 10  1  0  0  0  0
  6 16  1  0  0  0  0
  6 17  1  0  0  0  0
  7 10  2  0  0  0  0
  7 11  1  0  0  0  0
  8 18  1  0  0  0  0
  8 19  1  0  0  0  0
  8 20  1  0  0  0  0
  9 21  1  0  0  0  0
  9 22  1  0  0  0  0
  9 23  1  0  0  0  0
 10 24  1  0  0  0  0
 11 25  1  0  0  0  0
 11 26  1  0  0  0  0
M  END
> <PUBCHEM_COMPOUND_CID>
88301

> <PUBCHEM_CONFORMER_RMSD>
0.4

> <PUBCHEM_CONFORMER_DIVERSEORDER>
1
2
3

> <PUBCHEM_MMFF94_PARTIAL_CHARGES>
8
1 -0.68
10 -0.29
11 0.42
24 0.15
27 0.4
4 0.12
6 0.14
7 -0.25

> <PUBCHEM_EFFECTIVE_ROTOR_COUNT>
1.6

> <PUBCHEM_PHARMACOPHORE_FEATURES>
4
1 1 acceptor
1 1 donor
3 2 8 9 hydrophobe
7 2 3 4 5 6 7 10 rings

> <PUBCHEM_HEAVY_ATOM_COUNT>
11

> <PUBCHEM_ATOM_DEF_STEREO_COUNT>
2

> <PUBCHEM_ATOM_UDEF_STEREO_COUNT>
0

> <PUBCHEM_BOND_DEF_STEREO_COUNT>
0

> <PUBCHEM_BOND_UDEF_STEREO_COUNT>
0

> <PUBCHEM_ISOTOPIC_ATOM_COUNT>
0

> <PUBCHEM_COMPONENT_COUNT>
1

> <PUBCHEM_CACTVS_TAUTO_COUNT>
1

> <PUBCHEM_CONFORMER_ID>
000158ED00000001

> <PUBCHEM_MMFF94_ENERGY>
34.3201

> <PUBCHEM_FEATURE_SELFOVERLAP>
20.297

> <PUBCHEM_SHAPE_FINGERPRINT>
10702982 57 17975411308946110145
12423570 1 8057586040334897205
13024252 1 16154004442933322892
137420 1 7988038489450953533
14713566 1 18193541281907820459
16945 1 18271249300655761501
21922407 69 16698113349679313667
23552423 10 18335424624804397668
2748010 2 18200587115643456980
29004967 10 17982164831612908657
369184 2 18201153265568702460
5084963 1 18040992925509306492
68250623 7 18270684297961102297

> <PUBCHEM_SHAPE_MULTIPOLES>
220.51
2.86
1.77
1.23
1.68
0.22
0.06
-1.37
-0.24
-0.25
0.36
-0.38
-0.03
0.11

> <PUBCHEM_SHAPE_SELFOVERLAP>
461.713

> <PUBCHEM_SHAPE_VOLUME>
127.9

> <PUBCHEM_COORDINATE_TYPE>
2
5
10

$$$$
