88655
  -OEChem-11232108533D

 32 32  0     0  0  0  0  0  0999 V2000
   -4.0318   -0.5902   -0.4722 O   0  0  0  0  0  0  0  0  0  0  0  0
    0.8461   -0.0071   -0.3773 C   0  0  0  0  0  0  0  0  0  0  0  0
    2.3404   -0.0774   -0.0679 C   0  0  0  0  0  0  0  0  0  0  0  0
    0.1031   -1.1838    0.2696 C   0  0  0  0  0  0  0  0  0  0  0  0
    0.2588    1.3321    0.0883 C   0  0  0  0  0  0  0  0  0  0  0  0
   -1.4009   -1.1085    0.0158 C   0  0  0  0  0  0  0  0  0  0  0  0
   -1.2456    1.4068   -0.1640 C   0  0  0  0  0  0  0  0  0  0  0  0
   -1.9814    0.2289    0.4753 C   0  0  0  0  0  0  0  0  0  0  0  0
    3.0694    1.0870   -0.7594 C   0  0  0  0  0  0  0  0  0  0  0  0
    2.5616    0.0184    1.4511 C   0  0  0  0  0  0  0  0  0  0  0  0
    2.9149   -1.4088   -0.5797 C   0  0  0  0  0  0  0  0  0  0  0  0
   -3.4346    0.3025    0.1203 C   0  0  0  0  0  0  0  0  0  0  0  0
    0.7003   -0.0765   -1.4651 H   0  0  0  0  0  0  0  0  0  0  0  0
    0.2393   -1.2107    1.3545 H   0  0  0  0  0  0  0  0  0  0  0  0
    0.4496   -2.1430   -0.1275 H   0  0  0  0  0  0  0  0  0  0  0  0
    0.7163    2.1748   -0.4395 H   0  0  0  0  0  0  0  0  0  0  0  0
    0.4077    1.4972    1.1591 H   0  0  0  0  0  0  0  0  0  0  0  0
   -1.5871   -1.2583   -1.0562 H   0  0  0  0  0  0  0  0  0  0  0  0
   -1.8992   -1.9362    0.5360 H   0  0  0  0  0  0  0  0  0  0  0  0
   -1.6366    2.3532    0.2301 H   0  0  0  0  0  0  0  0  0  0  0  0
   -1.4334    1.4248   -1.2459 H   0  0  0  0  0  0  0  0  0  0  0  0
   -1.9105    0.3001    1.5677 H   0  0  0  0  0  0  0  0  0  0  0  0
    2.8481    2.0562   -0.3012 H   0  0  0  0  0  0  0  0  0  0  0  0
    4.1564    0.9593   -0.6900 H   0  0  0  0  0  0  0  0  0  0  0  0
    2.8161    1.1408   -1.8240 H   0  0  0  0  0  0  0  0  0  0  0  0
    2.1186   -0.8066    2.0143 H   0  0  0  0  0  0  0  0  0  0  0  0
    2.2283    0.9633    1.8869 H   0  0  0  0  0  0  0  0  0  0  0  0
    3.6386   -0.0333    1.6616 H   0  0  0  0  0  0  0  0  0  0  0  0
    2.6474   -1.5826   -1.6280 H   0  0  0  0  0  0  0  0  0  0  0  0
    4.0100   -1.4068   -0.5199 H   0  0  0  0  0  0  0  0  0  0  0  0
    2.5807   -2.2682    0.0101 H   0  0  0  0  0  0  0  0  0  0  0  0
   -3.9640    1.2156    0.4428 H   0  0  0  0  0  0  0  0  0  0  0  0
  1 12  2  0  0  0  0
  2  3  1  0  0  0  0
  2  4  1  0  0  0  0
  2  5  1  0  0  0  0
  2 13  1  0  0  0  0
  3  9  1  0  0  0  0
  3 10  1  0  0  0  0
  3 11  1  0  0  0  0
  4  6  1  0  0  0  0
  4 14  1  0  0  0  0
  4 15  1  0  0  0  0
  5  7  1  0  0  0  0
  5 16  1  0  0  0  0
  5 17  1  0  0  0  0
  6  8  1  0  0  0  0
  6 18  1  0  0  0  0
  6 19  1  0  0  0  0
  7  8  1  0  0  0  0
  7 20  1  0  0  0  0
  7 21  1  0  0  0  0
  8 12  1  0  0  0  0
  8 22  1  0  0  0  0
  9 23  1  0  0  0  0
  9 24  1  0  0  0  0
  9 25  1  0  0  0  0
 10 26  1  0  0  0  0
 10 27  1  0  0  0  0
 10 28  1  0  0  0  0
 11 29  1  0  0  0  0
 11 30  1  0  0  0  0
 11 31  1  0  0  0  0
 12 32  1  0  0  0  0
M  END
> <PUBCHEM_COMPOUND_CID>
88655

> <PUBCHEM_CONFORMER_RMSD>
0.6

> <PUBCHEM_CONFORMER_DIVERSEORDER>
1
2
3

> <PUBCHEM_MMFF94_PARTIAL_CHARGES>
4
1 -0.57
12 0.45
32 0.06
8 0.06

> <PUBCHEM_EFFECTIVE_ROTOR_COUNT>
3.2

> <PUBCHEM_PHARMACOPHORE_FEATURES>
3
1 1 acceptor
4 3 9 10 11 hydrophobe
6 2 4 5 6 7 8 rings

> <PUBCHEM_HEAVY_ATOM_COUNT>
12

> <PUBCHEM_ATOM_DEF_STEREO_COUNT>
0

> <PUBCHEM_ATOM_UDEF_STEREO_COUNT>
0

> <PUBCHEM_BOND_DEF_STEREO_COUNT>
0

> <PUBCHEM_BOND_UDEF_STEREO_COUNT>
0

> <PUBCHEM_ISOTOPIC_ATOM_COUNT>
0

> <PUBCHEM_COMPONENT_COUNT>
1

> <PUBCHEM_CACTVS_TAUTO_COUNT>
2

> <PUBCHEM_CONFORMER_ID>
00015A4F00000001

> <PUBCHEM_MMFF94_ENERGY>
30.1365

> <PUBCHEM_FEATURE_SELFOVERLAP>
15.223

> <PUBCHEM_SHAPE_FINGERPRINT>
10130415 120 18187361030116783312
10219947 1 18410579482936417383
10857977 72 18412820283207170865
11062470 55 17240482520098192901
11132069 177 18413100654588114003
12032990 46 18410019831713324571
12932764 1 17203604878400954548
13380535 76 18336550516400867382
13538477 17 17895474825305975394
14144814 61 18408890641618745289
14325111 11 18410296886915363109
14993402 34 18409171038548069789
15775835 57 17822293517335794116
16945 1 18341896319990766521
18186145 218 17458347424847765741
19026448 4 15985105215053851665
193761 8 17617382122455783369
19422 9 18201165364391400493
20201158 50 18411985762476846038
20645476 183 17023479632301584498
20645477 70 18411702045691120799
21293036 1 18334859445778670013
21501502 16 18199762340415265024
23402539 116 18342166743963779812
23402655 69 18412823573589976149
23463225 33 18336265639356475106
23552423 10 18261960643799344810
2748010 2 17906175405400370345
3248919 1 18408604764152759218
3286 77 17417807301507916498
369184 2 17060051532197933225
5084963 1 18270686350860329464
528886 8 18410858801855447674
57812782 119 17917988347912682459
581208 293 18413103965802287766
7364860 26 18413110576448072292

> <PUBCHEM_SHAPE_MULTIPOLES>
241.09
5.86
1.46
0.92
2.78
0.04
-0.22
-0.47
0.57
-0.32
0.17
-0.59
0.01
-0.09

> <PUBCHEM_SHAPE_SELFOVERLAP>
475.118

> <PUBCHEM_SHAPE_VOLUME>
143.7

> <PUBCHEM_COORDINATE_TYPE>
2
5
10

$$$$
