88710
  -OEChem-11232108533D

 28 28  0     0  0  0  0  0  0999 V2000
    2.2799   -1.1571   -0.9704 O   0  0  0  0  0  0  0  0  0  0  0  0
    2.4394    0.0121   -0.1636 C   0  0  0  0  0  0  0  0  0  0  0  0
    1.4261   -0.0468    1.0012 C   0  0  0  0  0  0  0  0  0  0  0  0
   -0.0295   -0.0278    0.5937 C   0  0  0  0  0  0  0  0  0  0  0  0
    3.8634   -0.0150    0.4058 C   0  0  0  0  0  0  0  0  0  0  0  0
    2.2611    1.2478   -1.0498 C   0  0  0  0  0  0  0  0  0  0  0  0
   -0.6830    1.1870    0.4709 C   0  0  0  0  0  0  0  0  0  0  0  0
   -0.6800   -1.2261    0.3511 C   0  0  0  0  0  0  0  0  0  0  0  0
   -2.6962    0.0062   -0.1530 C   0  0  0  0  0  0  0  0  0  0  0  0
   -2.0262    1.2041    0.0950 C   0  0  0  0  0  0  0  0  0  0  0  0
   -2.0232   -1.2090   -0.0249 C   0  0  0  0  0  0  0  0  0  0  0  0
   -4.1319    0.0246   -0.5559 C   0  0  0  0  0  0  0  0  0  0  0  0
    1.6085    0.7851    1.6953 H   0  0  0  0  0  0  0  0  0  0  0  0
    1.5995   -0.9600    1.5879 H   0  0  0  0  0  0  0  0  0  0  0  0
    4.6079   -0.0298   -0.3985 H   0  0  0  0  0  0  0  0  0  0  0  0
    4.0301   -0.9236    0.9956 H   0  0  0  0  0  0  0  0  0  0  0  0
    4.0596    0.8542    1.0422 H   0  0  0  0  0  0  0  0  0  0  0  0
    1.3189    1.2116   -1.6064 H   0  0  0  0  0  0  0  0  0  0  0  0
    3.0501    1.2952   -1.8098 H   0  0  0  0  0  0  0  0  0  0  0  0
    2.2970    2.1726   -0.4652 H   0  0  0  0  0  0  0  0  0  0  0  0
   -0.1718    2.1254    0.6649 H   0  0  0  0  0  0  0  0  0  0  0  0
   -0.1652   -2.1775    0.4479 H   0  0  0  0  0  0  0  0  0  0  0  0
    2.9250   -1.1121   -1.6968 H   0  0  0  0  0  0  0  0  0  0  0  0
   -2.5402    2.1569    0.0008 H   0  0  0  0  0  0  0  0  0  0  0  0
   -2.5349   -2.1490   -0.2139 H   0  0  0  0  0  0  0  0  0  0  0  0
   -4.3718   -0.8261   -1.2028 H   0  0  0  0  0  0  0  0  0  0  0  0
   -4.7715   -0.0179    0.3311 H   0  0  0  0  0  0  0  0  0  0  0  0
   -4.3726    0.9327   -1.1192 H   0  0  0  0  0  0  0  0  0  0  0  0
  1  2  1  0  0  0  0
  1 23  1  0  0  0  0
  2  3  1  0  0  0  0
  2  5  1  0  0  0  0
  2  6  1  0  0  0  0
  3  4  1  0  0  0  0
  3 13  1  0  0  0  0
  3 14  1  0  0  0  0
  4  7  2  0  0  0  0
  4  8  1  0  0  0  0
  5 15  1  0  0  0  0
  5 16  1  0  0  0  0
  5 17  1  0  0  0  0
  6 18  1  0  0  0  0
  6 19  1  0  0  0  0
  6 20  1  0  0  0  0
  7 10  1  0  0  0  0
  7 21  1  0  0  0  0
  8 11  2  0  0  0  0
  8 22  1  0  0  0  0
  9 10  2  0  0  0  0
  9 11  1  0  0  0  0
  9 12  1  0  0  0  0
 10 24  1  0  0  0  0
 11 25  1  0  0  0  0
 12 26  1  0  0  0  0
 12 27  1  0  0  0  0
 12 28  1  0  0  0  0
M  END
> <PUBCHEM_COMPOUND_CID>
88710

> <PUBCHEM_CONFORMER_RMSD>
0.6

> <PUBCHEM_CONFORMER_DIVERSEORDER>
1
2
3

> <PUBCHEM_MMFF94_PARTIAL_CHARGES>
15
1 -0.68
10 -0.15
11 -0.15
12 0.14
2 0.28
21 0.15
22 0.15
23 0.4
24 0.15
25 0.15
3 0.14
4 -0.14
7 -0.15
8 -0.15
9 -0.14

> <PUBCHEM_EFFECTIVE_ROTOR_COUNT>
2

> <PUBCHEM_PHARMACOPHORE_FEATURES>
4
1 1 acceptor
1 1 donor
3 2 5 6 hydrophobe
6 4 7 8 9 10 11 rings

> <PUBCHEM_HEAVY_ATOM_COUNT>
12

> <PUBCHEM_ATOM_DEF_STEREO_COUNT>
0

> <PUBCHEM_ATOM_UDEF_STEREO_COUNT>
0

> <PUBCHEM_BOND_DEF_STEREO_COUNT>
0

> <PUBCHEM_BOND_UDEF_STEREO_COUNT>
0

> <PUBCHEM_ISOTOPIC_ATOM_COUNT>
0

> <PUBCHEM_COMPONENT_COUNT>
1

> <PUBCHEM_CACTVS_TAUTO_COUNT>
1

> <PUBCHEM_CONFORMER_ID>
00015A8600000001

> <PUBCHEM_MMFF94_ENERGY>
31.1277

> <PUBCHEM_FEATURE_SELFOVERLAP>
20.297

> <PUBCHEM_SHAPE_FINGERPRINT>
11062470 55 16343983615304550267
12032990 46 18341613763315462411
12119455 92 14056710253914833459
12162725 195 18334580148303055084
12897270 3 18341901826291736268
12932764 1 16486967384430051601
14252887 29 15123796214124539054
14325111 11 18340769247531484857
14911166 2 18339631309480021613
14993402 34 18040714757731260205
15775835 57 17240202148880507230
16945 1 18411428314328928345
18186145 218 17894911832360423101
200 152 16845569803384007378
20201158 50 18060420218114788374
20279233 1 17775003509335147066
20645476 183 17894905248286854483
20653085 51 17240488039062629013
21028194 46 16732703856597767267
21119208 17 18186517700408475980
21293036 1 18409725175508089861
22485316 2 16988838376249326333
23402539 116 18339910567636474620
23552423 10 18336550417115719643
23559900 14 18343015610797405202
2748010 2 17979341277616396155
3248919 1 18412553110492479400
369184 2 15936411164837237945
57812782 119 18343017783407304436
8030462 33 17845950562443180816

> <PUBCHEM_SHAPE_MULTIPOLES>
241.09
6.17
1.32
0.95
0.21
0.05
0.05
0.14
1.11
0.15
0.12
-0.39
0.04
-0.17

> <PUBCHEM_SHAPE_SELFOVERLAP>
489.644

> <PUBCHEM_SHAPE_VOLUME>
142.9

> <PUBCHEM_COORDINATE_TYPE>
2
5
10

$$$$
