89284
  -OEChem-11232108553D

 39 39  0     0  0  0  0  0  0999 V2000
   -0.5979    4.0766    0.0359 O   0  0  0  0  0  0  0  0  0  0  0  0
    2.1944    0.4476   -0.6095 C   0  0  0  0  0  0  0  0  0  0  0  0
    3.3210    0.0202    0.3358 C   0  0  0  0  0  0  0  0  0  0  0  0
    0.9308    0.9041    0.1300 C   0  0  0  0  0  0  0  0  0  0  0  0
    4.5622   -0.4992   -0.3967 C   0  0  0  0  0  0  0  0  0  0  0  0
   -0.2362    1.3383   -0.7693 C   0  0  0  0  0  0  0  0  0  0  0  0
    5.6630   -0.9901    0.5441 C   0  0  0  0  0  0  0  0  0  0  0  0
   -1.4435    1.8375   -0.0158 C   0  0  0  0  0  0  0  0  0  0  0  0
    6.8751   -1.4830   -0.2318 C   0  0  0  0  0  0  0  0  0  0  0  0
   -2.4995    1.1237    0.4143 C   0  0  0  0  0  0  0  0  0  0  0  0
   -2.6958   -0.3172    0.2202 C   0  0  0  0  0  0  0  0  0  0  0  0
   -1.4821    3.2850    0.3418 C   0  0  0  0  0  0  0  0  0  0  0  0
   -3.3374   -0.7728   -0.9240 C   0  0  0  0  0  0  0  0  0  0  0  0
   -2.2375   -1.2067    1.1830 C   0  0  0  0  0  0  0  0  0  0  0  0
   -3.5243   -2.1428   -1.1086 C   0  0  0  0  0  0  0  0  0  0  0  0
   -2.4244   -2.5766    0.9982 C   0  0  0  0  0  0  0  0  0  0  0  0
   -3.0678   -3.0446   -0.1476 C   0  0  0  0  0  0  0  0  0  0  0  0
    2.5501    1.2611   -1.2532 H   0  0  0  0  0  0  0  0  0  0  0  0
    1.9366   -0.3904   -1.2686 H   0  0  0  0  0  0  0  0  0  0  0  0
    2.9476   -0.7649    1.0049 H   0  0  0  0  0  0  0  0  0  0  0  0
    3.6039    0.8690    0.9702 H   0  0  0  0  0  0  0  0  0  0  0  0
    0.5942    0.0901    0.7843 H   0  0  0  0  0  0  0  0  0  0  0  0
    1.1988    1.7380    0.7918 H   0  0  0  0  0  0  0  0  0  0  0  0
    4.2672   -1.3200   -1.0625 H   0  0  0  0  0  0  0  0  0  0  0  0
    4.9586    0.2992   -1.0363 H   0  0  0  0  0  0  0  0  0  0  0  0
   -0.5216    0.4911   -1.4054 H   0  0  0  0  0  0  0  0  0  0  0  0
    0.1083    2.1120   -1.4670 H   0  0  0  0  0  0  0  0  0  0  0  0
    5.2799   -1.8027    1.1719 H   0  0  0  0  0  0  0  0  0  0  0  0
    5.9680   -0.1777    1.2137 H   0  0  0  0  0  0  0  0  0  0  0  0
    7.2998   -0.6827   -0.8462 H   0  0  0  0  0  0  0  0  0  0  0  0
    6.6078   -2.3166   -0.8891 H   0  0  0  0  0  0  0  0  0  0  0  0
    7.6508   -1.8297    0.4581 H   0  0  0  0  0  0  0  0  0  0  0  0
   -3.3093    1.5989    0.9645 H   0  0  0  0  0  0  0  0  0  0  0  0
   -2.3674    3.6210    0.9082 H   0  0  0  0  0  0  0  0  0  0  0  0
   -3.6981   -0.0810   -1.6808 H   0  0  0  0  0  0  0  0  0  0  0  0
   -1.7348   -0.8555    2.0805 H   0  0  0  0  0  0  0  0  0  0  0  0
   -4.0252   -2.5073   -2.0007 H   0  0  0  0  0  0  0  0  0  0  0  0
   -2.0688   -3.2791    1.7464 H   0  0  0  0  0  0  0  0  0  0  0  0
   -3.2131   -4.1112   -0.2913 H   0  0  0  0  0  0  0  0  0  0  0  0
  1 12  2  0  0  0  0
  2  3  1  0  0  0  0
  2  4  1  0  0  0  0
  2 18  1  0  0  0  0
  2 19  1  0  0  0  0
  3  5  1  0  0  0  0
  3 20  1  0  0  0  0
  3 21  1  0  0  0  0
  4  6  1  0  0  0  0
  4 22  1  0  0  0  0
  4 23  1  0  0  0  0
  5  7  1  0  0  0  0
  5 24  1  0  0  0  0
  5 25  1  0  0  0  0
  6  8  1  0  0  0  0
  6 26  1  0  0  0  0
  6 27  1  0  0  0  0
  7  9  1  0  0  0  0
  7 28  1  0  0  0  0
  7 29  1  0  0  0  0
  8 10  2  3  0  0  0
  8 12  1  0  0  0  0
  9 30  1  0  0  0  0
  9 31  1  0  0  0  0
  9 32  1  0  0  0  0
 10 11  1  0  0  0  0
 10 33  1  0  0  0  0
 11 13  2  0  0  0  0
 11 14  1  0  0  0  0
 12 34  1  0  0  0  0
 13 15  1  0  0  0  0
 13 35  1  0  0  0  0
 14 16  2  0  0  0  0
 14 36  1  0  0  0  0
 15 17  2  0  0  0  0
 15 37  1  0  0  0  0
 16 17  1  0  0  0  0
 16 38  1  0  0  0  0
 17 39  1  0  0  0  0
M  END
> <PUBCHEM_COMPOUND_CID>
89284

> <PUBCHEM_CONFORMER_RMSD>
0.8

> <PUBCHEM_CONFORMER_DIVERSEORDER>
1
28
63
170
90
53
31
40
139
130
166
169
26
64
110
164
72
116
100
52
93
44
106
165
114
156
162
143
70
124
38
147
105
121
134
36
76
24
68
111
69
67
159
35
62
66
152
81
55
74
153
172
17
144
50
33
146
88
19
115
16
138
49
129
39
161
45
125
60
133
96
122
86
89
117
94
167
163
102
43
82
34
128
7
83
98
99
137
3
112
48
118
51
123
135
79
18
13
37
150
103
21
171
151
154
11
30
10
104
148
23
168
25
29
136
107
56
160
140
8
95
71
47
149
142
6
78
57
42
155
84
97
132
108
158
120
101
54
119
41
15
87
85
12
2
4
27
61
22
77
109
65
58
126
80
157
75
173
113
14
46
131
32
145
5
91
59
73
141
20
127
9
92

> <PUBCHEM_MMFF94_PARTIAL_CHARGES>
18
1 -0.57
10 -0.18
11 0.03
12 0.5
13 -0.15
14 -0.15
15 -0.15
16 -0.15
17 -0.15
33 0.15
34 0.06
35 0.15
36 0.15
37 0.15
38 0.15
39 0.15
6 0.14
8 -0.12

> <PUBCHEM_EFFECTIVE_ROTOR_COUNT>
8

> <PUBCHEM_PHARMACOPHORE_FEATURES>
3
1 1 acceptor
1 9 hydrophobe
6 11 13 14 15 16 17 rings

> <PUBCHEM_HEAVY_ATOM_COUNT>
17

> <PUBCHEM_ATOM_DEF_STEREO_COUNT>
0

> <PUBCHEM_ATOM_UDEF_STEREO_COUNT>
0

> <PUBCHEM_BOND_DEF_STEREO_COUNT>
0

> <PUBCHEM_BOND_UDEF_STEREO_COUNT>
1

> <PUBCHEM_ISOTOPIC_ATOM_COUNT>
0

> <PUBCHEM_COMPONENT_COUNT>
1

> <PUBCHEM_CACTVS_TAUTO_COUNT>
1

> <PUBCHEM_CONFORMER_ID>
00015CC400000001

> <PUBCHEM_MMFF94_ENERGY>
24.1021

> <PUBCHEM_FEATURE_SELFOVERLAP>
15.223

> <PUBCHEM_SHAPE_FINGERPRINT>
11056379 131 18339932494051461588
12363563 72 18339366395306653015
12523318 42 18340753855033269866
12553582 1 18267041611458573487
12757275 245 18408887304592634560
12788726 201 18264197033185879017
14251740 79 18113329799811721262
14774955 27 8755694762292273478
14844126 61 18409732841639845259
15250474 111 18188481356048210730
18927931 339 18411708668783742902
20645477 70 17545589511285002879
20671657 53 18195810893357025101
20681677 274 18340766031139544168
21650355 55 18412266125189344053
23403322 49 18336263552065952111
23559900 14 18338788022247367776
23728640 28 18337398132412514457
5364581 5 18271230712897557624
559249 180 18335417933287561431
5924683 9 18341046337726283906
7062679 117 18334861606801458006
81228 2 18270413710879890161

> <PUBCHEM_SHAPE_MULTIPOLES>
343.98
11.31
3.97
1
27.79
2.68
0
-10.1
-0.59
-4.37
0.28
-0.58
-0.38
-0.32

> <PUBCHEM_SHAPE_SELFOVERLAP>
680.385

> <PUBCHEM_SHAPE_VOLUME>
204.8

> <PUBCHEM_COORDINATE_TYPE>
2
5
10

$$$$
