89306
  -OEChem-11232109053D

 37 38  0     1  0  0  0  0  0999 V2000
   -1.3061    0.5534   -0.2220 O   0  0  0  0  0  0  0  0  0  0  0  0
   -2.5792   -1.3658   -0.3610 O   0  0  0  0  0  0  0  0  0  0  0  0
    1.1566    0.6819   -0.4420 C   0  0  1  0  0  0  0  0  0  0  0  0
    2.2705   -0.3803   -0.1945 C   0  0  0  0  0  0  0  0  0  0  0  0
    1.5536   -0.8898    1.0843 C   0  0  2  0  0  0  0  0  0  0  0  0
   -0.1325   -0.1928   -0.4932 C   0  0  1  0  0  0  0  0  0  0  0  0
    1.1383    1.4774    0.8941 C   0  0  0  0  0  0  0  0  0  0  0  0
    0.1328   -1.2546    0.5902 C   0  0  0  0  0  0  0  0  0  0  0  0
    1.4005    0.3847    1.9443 C   0  0  0  0  0  0  0  0  0  0  0  0
    1.3152    1.5818   -1.6531 C   0  0  0  0  0  0  0  0  0  0  0  0
    3.6822    0.1863    0.0594 C   0  0  0  0  0  0  0  0  0  0  0  0
    2.4307   -1.4487   -1.2945 C   0  0  0  0  0  0  0  0  0  0  0  0
   -2.4778   -0.1599   -0.1828 C   0  0  0  0  0  0  0  0  0  0  0  0
   -3.6256    0.7759    0.1158 C   0  0  0  0  0  0  0  0  0  0  0  0
   -4.9593    0.0505    0.1549 C   0  0  0  0  0  0  0  0  0  0  0  0
    2.0500   -1.7084    1.6109 H   0  0  0  0  0  0  0  0  0  0  0  0
   -0.2440   -0.6566   -1.4812 H   0  0  0  0  0  0  0  0  0  0  0  0
    0.1904    1.9933    1.0774 H   0  0  0  0  0  0  0  0  0  0  0  0
    1.9229    2.2416    0.9278 H   0  0  0  0  0  0  0  0  0  0  0  0
    0.1282   -2.2594    0.1537 H   0  0  0  0  0  0  0  0  0  0  0  0
   -0.5905   -1.2474    1.4124 H   0  0  0  0  0  0  0  0  0  0  0  0
    2.3132    0.5991    2.5101 H   0  0  0  0  0  0  0  0  0  0  0  0
    0.5793    0.3092    2.6648 H   0  0  0  0  0  0  0  0  0  0  0  0
    2.2419    2.1624   -1.5999 H   0  0  0  0  0  0  0  0  0  0  0  0
    1.3378    1.0006   -2.5805 H   0  0  0  0  0  0  0  0  0  0  0  0
    0.4832    2.2905   -1.7247 H   0  0  0  0  0  0  0  0  0  0  0  0
    4.1042    0.5992   -0.8640 H   0  0  0  0  0  0  0  0  0  0  0  0
    3.7264    0.9817    0.8060 H   0  0  0  0  0  0  0  0  0  0  0  0
    4.3539   -0.6078    0.4059 H   0  0  0  0  0  0  0  0  0  0  0  0
    1.5045   -1.9482   -1.5853 H   0  0  0  0  0  0  0  0  0  0  0  0
    2.8492   -1.0054   -2.2053 H   0  0  0  0  0  0  0  0  0  0  0  0
    3.1178   -2.2357   -0.9622 H   0  0  0  0  0  0  0  0  0  0  0  0
   -3.4410    1.2505    1.0853 H   0  0  0  0  0  0  0  0  0  0  0  0
   -3.6548    1.5467   -0.6615 H   0  0  0  0  0  0  0  0  0  0  0  0
   -4.9625   -0.7250    0.9282 H   0  0  0  0  0  0  0  0  0  0  0  0
   -5.7695    0.7534    0.3716 H   0  0  0  0  0  0  0  0  0  0  0  0
   -5.1724   -0.4327   -0.8044 H   0  0  0  0  0  0  0  0  0  0  0  0
  1  6  1  0  0  0  0
  1 13  1  0  0  0  0
  2 13  2  0  0  0  0
  3  4  1  0  0  0  0
  3  6  1  0  0  0  0
  3  7  1  0  0  0  0
  3 10  1  0  0  0  0
  4  5  1  0  0  0  0
  4 11  1  0  0  0  0
  4 12  1  0  0  0  0
  5  8  1  0  0  0  0
  5  9  1  0  0  0  0
  5 16  1  0  0  0  0
  6  8  1  0  0  0  0
  6 17  1  0  0  0  0
  7  9  1  0  0  0  0
  7 18  1  0  0  0  0
  7 19  1  0  0  0  0
  8 20  1  0  0  0  0
  8 21  1  0  0  0  0
  9 22  1  0  0  0  0
  9 23  1  0  0  0  0
 10 24  1  0  0  0  0
 10 25  1  0  0  0  0
 10 26  1  0  0  0  0
 11 27  1  0  0  0  0
 11 28  1  0  0  0  0
 11 29  1  0  0  0  0
 12 30  1  0  0  0  0
 12 31  1  0  0  0  0
 12 32  1  0  0  0  0
 13 14  1  0  0  0  0
 14 15  1  0  0  0  0
 14 33  1  0  0  0  0
 14 34  1  0  0  0  0
 15 35  1  0  0  0  0
 15 36  1  0  0  0  0
 15 37  1  0  0  0  0
M  END
> <PUBCHEM_COMPOUND_CID>
89306

> <PUBCHEM_CONFORMER_RMSD>
0.6

> <PUBCHEM_CONFORMER_DIVERSEORDER>
1
6
18
16
12
15
5
9
13
19
10
14
3
7
17
2
11
8
4

> <PUBCHEM_MMFF94_PARTIAL_CHARGES>
5
1 -0.43
13 0.66
14 0.06
2 -0.57
6 0.28

> <PUBCHEM_EFFECTIVE_ROTOR_COUNT>
4

> <PUBCHEM_PHARMACOPHORE_FEATURES>
4
1 15 hydrophobe
1 2 acceptor
3 4 11 12 hydrophobe
7 3 4 5 6 7 8 9 rings

> <PUBCHEM_HEAVY_ATOM_COUNT>
15

> <PUBCHEM_ATOM_DEF_STEREO_COUNT>
0

> <PUBCHEM_ATOM_UDEF_STEREO_COUNT>
3

> <PUBCHEM_BOND_DEF_STEREO_COUNT>
0

> <PUBCHEM_BOND_UDEF_STEREO_COUNT>
0

> <PUBCHEM_ISOTOPIC_ATOM_COUNT>
0

> <PUBCHEM_COMPONENT_COUNT>
1

> <PUBCHEM_CACTVS_TAUTO_COUNT>
1

> <PUBCHEM_CONFORMER_ID>
00015CDA00000001

> <PUBCHEM_MMFF94_ENERGY>
57.7193

> <PUBCHEM_FEATURE_SELFOVERLAP>
20.297

> <PUBCHEM_SHAPE_FINGERPRINT>
11067466 332 15646772292662573405
12423570 1 13964763628660370304
12500047 106 17917986196424412719
12725867 57 17561083575170631712
12932764 1 16660353814474547783
13134695 92 16415472723334637168
13380536 305 17822300110115868348
13571099 22 17346884420465236255
14115302 16 18342748424575527431
14144814 61 17968091985168900821
14344429 50 18131068242424921328
15048467 5 18343301492136624976
15775835 57 18411980273761719531
16945 1 18268407145081848544
18186145 218 18186235139480337671
20233049 118 18343018848454075753
20559304 39 17530956956500880449
20645477 70 17346321444842342439
20820808 20 14996581593762612598
21524375 3 17246679560869476756
22892500 29 16988550312502834768
23402539 116 18261103080833150014
23419403 2 12940854690966911332
3060560 45 17967532367688407031
528886 8 18113057142698034522
5337951 7 18060132167696024642
54040823 5 18040722450334315370
7364860 26 18341613784162869708
74978 22 17775282798547901011

> <PUBCHEM_SHAPE_MULTIPOLES>
296.95
6.37
1.45
1.38
8.93
0.12
-0.24
-0.11
0.23
-0.48
0.28
-1.04
0.13
-0.02

> <PUBCHEM_SHAPE_SELFOVERLAP>
617.517

> <PUBCHEM_SHAPE_VOLUME>
175.3

> <PUBCHEM_COORDINATE_TYPE>
2
5
10

$$$$
