89307
  -OEChem-11232108453D

 38 37  0     1  0  0  0  0  0999 V2000
    1.3773    1.1005    0.1240 O   0  0  0  0  0  0  0  0  0  0  0  0
    1.5680   -0.4913   -1.5351 O   0  0  0  0  0  0  0  0  0  0  0  0
   -0.8522    0.1617    0.2321 C   0  0  0  0  0  0  0  0  0  0  0  0
    0.0094    1.3654   -0.1775 C   0  0  1  0  0  0  0  0  0  0  0  0
   -2.3306    0.2801   -0.1594 C   0  0  0  0  0  0  0  0  0  0  0  0
   -3.1017   -0.9890    0.2156 C   0  0  0  0  0  0  0  0  0  0  0  0
   -0.4094    2.6692    0.5091 C   0  0  0  0  0  0  0  0  0  0  0  0
   -4.5917   -0.9172   -0.1256 C   0  0  0  0  0  0  0  0  0  0  0  0
    0.4746    3.8409    0.0983 C   0  0  0  0  0  0  0  0  0  0  0  0
   -5.3560   -2.1857    0.2207 C   0  0  0  0  0  0  0  0  0  0  0  0
    1.9080   -0.0180   -0.4596 C   0  0  0  0  0  0  0  0  0  0  0  0
    2.9858   -0.5802    0.4390 C   0  0  0  0  0  0  0  0  0  0  0  0
    3.6073   -1.8493   -0.1387 C   0  0  0  0  0  0  0  0  0  0  0  0
    4.7112   -2.3871    0.7571 C   0  0  0  0  0  0  0  0  0  0  0  0
   -0.7708    0.0207    1.3183 H   0  0  0  0  0  0  0  0  0  0  0  0
   -0.4675   -0.7668   -0.2026 H   0  0  0  0  0  0  0  0  0  0  0  0
   -0.0762    1.5142   -1.2625 H   0  0  0  0  0  0  0  0  0  0  0  0
   -2.4137    0.4552   -1.2385 H   0  0  0  0  0  0  0  0  0  0  0  0
   -2.7900    1.1346    0.3487 H   0  0  0  0  0  0  0  0  0  0  0  0
   -2.9907   -1.1764    1.2909 H   0  0  0  0  0  0  0  0  0  0  0  0
   -2.6576   -1.8480   -0.3027 H   0  0  0  0  0  0  0  0  0  0  0  0
   -0.3401    2.5536    1.5974 H   0  0  0  0  0  0  0  0  0  0  0  0
   -1.4475    2.9175    0.2666 H   0  0  0  0  0  0  0  0  0  0  0  0
   -5.0457   -0.0732    0.4074 H   0  0  0  0  0  0  0  0  0  0  0  0
   -4.7089   -0.7162   -1.1972 H   0  0  0  0  0  0  0  0  0  0  0  0
    1.5144    3.6853    0.4022 H   0  0  0  0  0  0  0  0  0  0  0  0
    0.1224    4.7617    0.5742 H   0  0  0  0  0  0  0  0  0  0  0  0
    0.4497    3.9890   -0.9860 H   0  0  0  0  0  0  0  0  0  0  0  0
   -4.9537   -3.0449   -0.3254 H   0  0  0  0  0  0  0  0  0  0  0  0
   -5.2920   -2.3992    1.2924 H   0  0  0  0  0  0  0  0  0  0  0  0
   -6.4125   -2.0776   -0.0434 H   0  0  0  0  0  0  0  0  0  0  0  0
    2.5379   -0.7997    1.4147 H   0  0  0  0  0  0  0  0  0  0  0  0
    3.7579    0.1871    0.5645 H   0  0  0  0  0  0  0  0  0  0  0  0
    4.0185   -1.6453   -1.1347 H   0  0  0  0  0  0  0  0  0  0  0  0
    2.8358   -2.6180   -0.2666 H   0  0  0  0  0  0  0  0  0  0  0  0
    5.1409   -3.2962    0.3250 H   0  0  0  0  0  0  0  0  0  0  0  0
    5.5151   -1.6531    0.8728 H   0  0  0  0  0  0  0  0  0  0  0  0
    4.3244   -2.6333    1.7511 H   0  0  0  0  0  0  0  0  0  0  0  0
  1  4  1  0  0  0  0
  1 11  1  0  0  0  0
  2 11  2  0  0  0  0
  3  4  1  0  0  0  0
  3  5  1  0  0  0  0
  3 15  1  0  0  0  0
  3 16  1  0  0  0  0
  4  7  1  0  0  0  0
  4 17  1  0  0  0  0
  5  6  1  0  0  0  0
  5 18  1  0  0  0  0
  5 19  1  0  0  0  0
  6  8  1  0  0  0  0
  6 20  1  0  0  0  0
  6 21  1  0  0  0  0
  7  9  1  0  0  0  0
  7 22  1  0  0  0  0
  7 23  1  0  0  0  0
  8 10  1  0  0  0  0
  8 24  1  0  0  0  0
  8 25  1  0  0  0  0
  9 26  1  0  0  0  0
  9 27  1  0  0  0  0
  9 28  1  0  0  0  0
 10 29  1  0  0  0  0
 10 30  1  0  0  0  0
 10 31  1  0  0  0  0
 11 12  1  0  0  0  0
 12 13  1  0  0  0  0
 12 32  1  0  0  0  0
 12 33  1  0  0  0  0
 13 14  1  0  0  0  0
 13 34  1  0  0  0  0
 13 35  1  0  0  0  0
 14 36  1  0  0  0  0
 14 37  1  0  0  0  0
 14 38  1  0  0  0  0
M  END
> <PUBCHEM_COMPOUND_CID>
89307

> <PUBCHEM_CONFORMER_RMSD>
1

> <PUBCHEM_CONFORMER_DIVERSEORDER>
1
632
13
301
149
461
370
449
381
420
3
92
432
477
130
192
591
10
28
446
52
216
372
321
27
65
483
489
537
163
316
59
625
616
6
587
525
527
407
114
7
89
127
588
458
68
605
188
267
77
419
225
44
72
318
247
116
398
342
580
14
543
227
331
83
19
243
248
490
554
566
9
141
354
452
515
31
171
212
69
334
82
230
154
177
175
48
21
60
63
8
143
25
311
550
64
4
271
132
24
80
67
160
376
161
74
30
448
572
378
90
533
95
195
29
324
135
250
126
117
295

> <PUBCHEM_MMFF94_PARTIAL_CHARGES>
5
1 -0.43
11 0.66
12 0.06
2 -0.57
4 0.28

> <PUBCHEM_EFFECTIVE_ROTOR_COUNT>
9

> <PUBCHEM_PHARMACOPHORE_FEATURES>
5
1 10 hydrophobe
1 14 hydrophobe
1 2 acceptor
1 9 hydrophobe
4 3 5 6 8 hydrophobe

> <PUBCHEM_HEAVY_ATOM_COUNT>
14

> <PUBCHEM_ATOM_DEF_STEREO_COUNT>
0

> <PUBCHEM_ATOM_UDEF_STEREO_COUNT>
1

> <PUBCHEM_BOND_DEF_STEREO_COUNT>
0

> <PUBCHEM_BOND_UDEF_STEREO_COUNT>
0

> <PUBCHEM_ISOTOPIC_ATOM_COUNT>
0

> <PUBCHEM_COMPONENT_COUNT>
1

> <PUBCHEM_CACTVS_TAUTO_COUNT>
1

> <PUBCHEM_CONFORMER_ID>
00015CDB00000001

> <PUBCHEM_MMFF94_ENERGY>
8.5173

> <PUBCHEM_FEATURE_SELFOVERLAP>
25.374

> <PUBCHEM_SHAPE_FINGERPRINT>
10610426 29 18040996215575542324
11265709 11 18411142411198730880
122479 349 10735862989587721902
12363563 72 18410864243484345451
13052359 8 17977101263030168197
13533116 47 18193563492186391987
13955234 65 18052260897334399481
1420 369 18411420583356868026
14252887 29 18060429031234841999
15042514 8 18195531381027719321
15342816 4 18339656593467294334
15885798 251 18411985732617666979
17134986 127 9151176458613779456
17539 30 18193829349802320701
20369508 70 18336261357701381443
20388580 30 18187368743962436454
20645477 56 8357385177391845334
20645477 70 18193271021813568471
20671657 53 18411141363791232673
20832881 197 18334297565752303043
20871998 22 18411695512861169153
21296965 67 18411698781426051425
23402539 116 18269829839771050223
23526113 38 18113901614756996609
257057 1 18410576162827081384
3086196 2 18267581295853655768
3286 77 18334857259925315591
3421961 26 18339921627335543425
633830 44 8070035458266481289
7364860 26 18125725840248946345
76465 3 18409164402802855523
77188 2 18410572890120167008
7808743 9 9799105453922624034
81228 2 18055367837615723713
81539 233 17832423472814101373

> <PUBCHEM_SHAPE_MULTIPOLES>
276.37
9.3
3.65
0.84
6.03
3.59
0.15
-12.61
-1.2
-1.06
-0.66
-0.4
-0.11
-0.29

> <PUBCHEM_SHAPE_SELFOVERLAP>
505.528

> <PUBCHEM_SHAPE_VOLUME>
176.1

> <PUBCHEM_COORDINATE_TYPE>
2
5
10

$$$$
