89463
  -OEChem-11232109173D

 29 28  0     1  0  0  0  0  0999 V2000
    0.4545    1.1342    0.3161 O   0  0  0  0  0  0  0  0  0  0  0  0
   -3.1942   -0.7933    0.3633 O   0  0  0  0  0  0  0  0  0  0  0  0
   -2.1313    0.9347   -0.7345 O   0  0  0  0  0  0  0  0  0  0  0  0
    2.1503    1.8081   -1.1005 O   0  0  0  0  0  0  0  0  0  0  0  0
    0.4240   -0.1890   -0.2166 C   0  0  1  0  0  0  0  0  0  0  0  0
    1.6674   -0.9601    0.2469 C   0  0  0  0  0  0  0  0  0  0  0  0
    1.7046   -2.3964   -0.2831 C   0  0  0  0  0  0  0  0  0  0  0  0
   -0.8524   -0.8705    0.2865 C   0  0  0  0  0  0  0  0  0  0  0  0
    2.9656   -3.1201    0.1642 C   0  0  0  0  0  0  0  0  0  0  0  0
   -2.1050   -0.1138   -0.1049 C   0  0  0  0  0  0  0  0  0  0  0  0
    1.5288    1.8931   -0.0501 C   0  0  0  0  0  0  0  0  0  0  0  0
    1.8509    2.8711    1.0389 C   0  0  0  0  0  0  0  0  0  0  0  0
   -4.4631   -0.1979    0.0738 C   0  0  0  0  0  0  0  0  0  0  0  0
    0.3924   -0.1286   -1.3124 H   0  0  0  0  0  0  0  0  0  0  0  0
    1.7074   -0.9651    1.3443 H   0  0  0  0  0  0  0  0  0  0  0  0
    2.5830   -0.4512   -0.0739 H   0  0  0  0  0  0  0  0  0  0  0  0
    0.8495   -2.9725    0.0825 H   0  0  0  0  0  0  0  0  0  0  0  0
    1.6576   -2.3918   -1.3780 H   0  0  0  0  0  0  0  0  0  0  0  0
   -0.8386   -0.9250    1.3816 H   0  0  0  0  0  0  0  0  0  0  0  0
   -0.9510   -1.8763   -0.1319 H   0  0  0  0  0  0  0  0  0  0  0  0
    3.8617   -2.6123   -0.2063 H   0  0  0  0  0  0  0  0  0  0  0  0
    3.0241   -3.1681    1.2563 H   0  0  0  0  0  0  0  0  0  0  0  0
    2.9723   -4.1442   -0.2219 H   0  0  0  0  0  0  0  0  0  0  0  0
    2.1053    2.3334    1.9557 H   0  0  0  0  0  0  0  0  0  0  0  0
    0.9988    3.5348    1.2050 H   0  0  0  0  0  0  0  0  0  0  0  0
    2.7114    3.4765    0.7398 H   0  0  0  0  0  0  0  0  0  0  0  0
   -4.6137   -0.1347   -1.0081 H   0  0  0  0  0  0  0  0  0  0  0  0
   -4.5298    0.7932    0.5325 H   0  0  0  0  0  0  0  0  0  0  0  0
   -5.2427   -0.8350    0.4999 H   0  0  0  0  0  0  0  0  0  0  0  0
  1  5  1  0  0  0  0
  1 11  1  0  0  0  0
  2 10  1  0  0  0  0
  2 13  1  0  0  0  0
  3 10  2  0  0  0  0
  4 11  2  0  0  0  0
  5  6  1  0  0  0  0
  5  8  1  0  0  0  0
  5 14  1  0  0  0  0
  6  7  1  0  0  0  0
  6 15  1  0  0  0  0
  6 16  1  0  0  0  0
  7  9  1  0  0  0  0
  7 17  1  0  0  0  0
  7 18  1  0  0  0  0
  8 10  1  0  0  0  0
  8 19  1  0  0  0  0
  8 20  1  0  0  0  0
  9 21  1  0  0  0  0
  9 22  1  0  0  0  0
  9 23  1  0  0  0  0
 11 12  1  0  0  0  0
 12 24  1  0  0  0  0
 12 25  1  0  0  0  0
 12 26  1  0  0  0  0
 13 27  1  0  0  0  0
 13 28  1  0  0  0  0
 13 29  1  0  0  0  0
M  END
> <PUBCHEM_COMPOUND_CID>
89463

> <PUBCHEM_CONFORMER_RMSD>
0.8

> <PUBCHEM_CONFORMER_DIVERSEORDER>
1
92
91
10
41
99
104
70
72
90
25
67
93
95
51
97
101
33
56
83
96
54
13
50
75
89
44
86
62
87
61
49
63
65
76
35
58
103
34
102
21
55
69
53
16
64
20
7
52
82
12
26
100
31
40
79
66
15
77
88
85
32
94
48
78
68
28
74
27
39
81
19
59
80
29
4
23
17
84
18
36
57
30
37
6
2
3
42
14
45
11
43
47
9
60
71
8
5
73
24
46
98
22
38

> <PUBCHEM_MMFF94_PARTIAL_CHARGES>
10
1 -0.43
10 0.66
11 0.66
12 0.06
13 0.28
2 -0.43
3 -0.57
4 -0.57
5 0.28
8 0.06

> <PUBCHEM_EFFECTIVE_ROTOR_COUNT>
7

> <PUBCHEM_PHARMACOPHORE_FEATURES>
3
1 3 acceptor
1 4 acceptor
1 9 hydrophobe

> <PUBCHEM_HEAVY_ATOM_COUNT>
13

> <PUBCHEM_ATOM_DEF_STEREO_COUNT>
0

> <PUBCHEM_ATOM_UDEF_STEREO_COUNT>
1

> <PUBCHEM_BOND_DEF_STEREO_COUNT>
0

> <PUBCHEM_BOND_UDEF_STEREO_COUNT>
0

> <PUBCHEM_ISOTOPIC_ATOM_COUNT>
0

> <PUBCHEM_COMPONENT_COUNT>
1

> <PUBCHEM_CACTVS_TAUTO_COUNT>
1

> <PUBCHEM_CONFORMER_ID>
00015D7700000001

> <PUBCHEM_MMFF94_ENERGY>
17.0477

> <PUBCHEM_FEATURE_SELFOVERLAP>
15.223

> <PUBCHEM_SHAPE_FINGERPRINT>
1 1 18339359798468761028
12532896 13 17766276857512953468
13380535 21 18264218078715701979
13380535 76 18118118297636632283
136203 1 17475795351583553954
14178000 15 18270396092586029201
17041 49 18127421059698152209
17841504 4 18411137987662114315
18410436 195 18268146457488556486
19021347 4 17763457714047050698
20339313 130 18270686346302001226
20559304 39 18413671305196448489
20645477 70 18335412487781070847
20671657 1 18342741848838393195
20708731 107 18408889533422289334
20711985 344 17474657356959310274
20871998 22 18266454309135834762
21041028 32 18197782102751794313
21296965 67 18194118516922838506
21524375 3 17901937870449296112
23526113 38 17822864078082423986
23557571 272 17694219972551214310
2748010 2 18122888846771932094
305870 269 18196080264910349280
3071541 158 18262236603890159774
3071541 250 18339652126638106486
458136 41 18120113894108408881
6049 1 18040994004189669717
7364860 26 18412543223499018858
81228 2 17546731448093112154
81539 233 18189333635576052356

> <PUBCHEM_SHAPE_MULTIPOLES>
244.06
5.61
3.39
0.82
7.01
0.54
0.03
-2.58
-0.18
-4.9
-0.46
-0.22
0.36
0.19

> <PUBCHEM_SHAPE_SELFOVERLAP>
460.004

> <PUBCHEM_SHAPE_VOLUME>
151.4

> <PUBCHEM_COORDINATE_TYPE>
2
5
10

$$$$
