89464
  -OEChem-11232108513D

 32 31  0     1  0  0  0  0  0999 V2000
   -0.5323    1.1141    0.3008 O   0  0  0  0  0  0  0  0  0  0  0  0
    1.7993   -0.6812   -0.1274 O   0  0  0  0  0  0  0  0  0  0  0  0
    0.4421   -2.4999   -0.5412 O   0  0  0  0  0  0  0  0  0  0  0  0
    0.6936    2.3235   -1.2391 O   0  0  0  0  0  0  0  0  0  0  0  0
   -1.1456    0.3759   -0.7550 C   0  0  2  0  0  0  0  0  0  0  0  0
   -2.1272   -0.6465   -0.1665 C   0  0  0  0  0  0  0  0  0  0  0  0
   -0.0372   -0.3307   -1.5417 C   0  0  0  0  0  0  0  0  0  0  0  0
   -3.2702    0.0111    0.6124 C   0  0  0  0  0  0  0  0  0  0  0  0
   -4.2434   -1.0266    1.1507 C   0  0  0  0  0  0  0  0  0  0  0  0
    0.7329   -1.3215   -0.6933 C   0  0  0  0  0  0  0  0  0  0  0  0
    0.3717    2.0603   -0.0883 C   0  0  0  0  0  0  0  0  0  0  0  0
    2.6291   -1.4903    0.7123 C   0  0  0  0  0  0  0  0  0  0  0  0
    0.9305    2.7516    1.1184 C   0  0  0  0  0  0  0  0  0  0  0  0
    3.7566   -0.6400    1.2577 C   0  0  0  0  0  0  0  0  0  0  0  0
   -1.6909    1.0670   -1.4100 H   0  0  0  0  0  0  0  0  0  0  0  0
   -2.5415   -1.2656   -0.9715 H   0  0  0  0  0  0  0  0  0  0  0  0
   -1.6085   -1.3123    0.5330 H   0  0  0  0  0  0  0  0  0  0  0  0
    0.6777    0.3088   -2.0617 H   0  0  0  0  0  0  0  0  0  0  0  0
   -0.4972   -0.9138   -2.3515 H   0  0  0  0  0  0  0  0  0  0  0  0
   -2.8709    0.5946    1.4497 H   0  0  0  0  0  0  0  0  0  0  0  0
   -3.8105    0.7065   -0.0402 H   0  0  0  0  0  0  0  0  0  0  0  0
   -4.6889   -1.6066    0.3362 H   0  0  0  0  0  0  0  0  0  0  0  0
   -3.7405   -1.7202    1.8321 H   0  0  0  0  0  0  0  0  0  0  0  0
   -5.0528   -0.5369    1.7011 H   0  0  0  0  0  0  0  0  0  0  0  0
    2.0320   -1.8886    1.5401 H   0  0  0  0  0  0  0  0  0  0  0  0
    3.0409   -2.3204    0.1277 H   0  0  0  0  0  0  0  0  0  0  0  0
    1.3952    2.0194    1.7834 H   0  0  0  0  0  0  0  0  0  0  0  0
    0.1345    3.2916    1.6367 H   0  0  0  0  0  0  0  0  0  0  0  0
    1.6950    3.4679    0.8044 H   0  0  0  0  0  0  0  0  0  0  0  0
    4.4143   -1.2293    1.9027 H   0  0  0  0  0  0  0  0  0  0  0  0
    4.3493   -0.2157    0.4406 H   0  0  0  0  0  0  0  0  0  0  0  0
    3.3600    0.2029    1.8332 H   0  0  0  0  0  0  0  0  0  0  0  0
  1  5  1  0  0  0  0
  1 11  1  0  0  0  0
  2 10  1  0  0  0  0
  2 12  1  0  0  0  0
  3 10  2  0  0  0  0
  4 11  2  0  0  0  0
  5  6  1  0  0  0  0
  5  7  1  0  0  0  0
  5 15  1  0  0  0  0
  6  8  1  0  0  0  0
  6 16  1  0  0  0  0
  6 17  1  0  0  0  0
  7 10  1  0  0  0  0
  7 18  1  0  0  0  0
  7 19  1  0  0  0  0
  8  9  1  0  0  0  0
  8 20  1  0  0  0  0
  8 21  1  0  0  0  0
  9 22  1  0  0  0  0
  9 23  1  0  0  0  0
  9 24  1  0  0  0  0
 11 13  1  0  0  0  0
 12 14  1  0  0  0  0
 12 25  1  0  0  0  0
 12 26  1  0  0  0  0
 13 27  1  0  0  0  0
 13 28  1  0  0  0  0
 13 29  1  0  0  0  0
 14 30  1  0  0  0  0
 14 31  1  0  0  0  0
 14 32  1  0  0  0  0
M  END
> <PUBCHEM_COMPOUND_CID>
89464

> <PUBCHEM_CONFORMER_RMSD>
0.8

> <PUBCHEM_CONFORMER_DIVERSEORDER>
5
80
192
194
144
134
295
246
22
293
277
287
131
121
222
39
264
271
6
245
256
78
276
61
283
113
281
94
4
141
132
273
280
184
167
41
169
27
178
231
3
108
284
171
81
51
268
240
1
133
164
223
173
204
274
257
217
275
252
95
201
70
197
103
176
16
146
110
278
100
12
10
258
172
162
71
130
286
138
32
288
261
59
160
96
102
35
266
224
292
228
44
107
269
45
153
279
84
67
63
15
142
218
65
205
106
216
186
53
254
55
69
36
247
265
117
170
267
42
188
129
259
25
19
202
60
68
111
175
137
90
9
243
140
57
177
126
49
97
185
143
47
182
253
165
210
219
236
226
157
115
183
195
193
294
105
198
152
14
237
199
207
58
125
83
289
179
118
211
38
250
139
180
239
124
31
119
50
85
251
234
114
159
181
109
43
74
148
112
230
282
116
46
244
101
215
263
37
208
285
232
156
26
174
229
123
163
33
127
128
190
200
291
17
48
260
213
52
13
24
206
196
91
7
212
72
235
40
209
73
149
238
122
227
66
262
241
221
135
77
2
158
79
86
92
88
75
64
62
98
11
187
233
145
150
29
56
270
191
154
290
20
147
155
220
93
136
203
166
248
21
76
161
242
151
89
225
23
82
120
104
168
272
54
189
30
8
249
296
34
255
87
99
214
28
18

> <PUBCHEM_MMFF94_PARTIAL_CHARGES>
10
1 -0.43
10 0.66
11 0.66
12 0.28
13 0.06
2 -0.43
3 -0.57
4 -0.57
5 0.28
7 0.06

> <PUBCHEM_EFFECTIVE_ROTOR_COUNT>
8

> <PUBCHEM_PHARMACOPHORE_FEATURES>
3
1 3 acceptor
1 4 acceptor
1 9 hydrophobe

> <PUBCHEM_HEAVY_ATOM_COUNT>
14

> <PUBCHEM_ATOM_DEF_STEREO_COUNT>
0

> <PUBCHEM_ATOM_UDEF_STEREO_COUNT>
1

> <PUBCHEM_BOND_DEF_STEREO_COUNT>
0

> <PUBCHEM_BOND_UDEF_STEREO_COUNT>
0

> <PUBCHEM_ISOTOPIC_ATOM_COUNT>
0

> <PUBCHEM_COMPONENT_COUNT>
1

> <PUBCHEM_CACTVS_TAUTO_COUNT>
1

> <PUBCHEM_CONFORMER_ID>
00015D7800000005

> <PUBCHEM_MMFF94_ENERGY>
14.5412

> <PUBCHEM_FEATURE_SELFOVERLAP>
15.223

> <PUBCHEM_SHAPE_FINGERPRINT>
10610426 29 16805317773470656218
108231 29 18335140868978753754
12382932 28 18196092149132206707
12423570 1 11751098051853869701
14022349 108 18267860760511703296
15163728 17 13397797218885939850
16945 1 18130782339373644031
17844478 74 18127965322222741450
18380122 1 18127124182736953606
20344682 10 18340200787304210958
20723712 36 17775293780304536600
21061003 4 18411692158512471999
21524375 3 17554617575148060805
23419403 2 17896579808648149349
2748010 2 17982738471929944655
276578 36 17981337990463814577
305870 269 18126001817709664273
528862 383 18264490757161430164
568465 68 18261401031041001947
58734985 188 18413670222827838105
81228 2 17761505694329127493

> <PUBCHEM_SHAPE_MULTIPOLES>
264.64
5.26
2.72
1.36
2.87
1.62
0.08
-2.88
-3.67
-1.47
-0.12
-0.11
0.08
0.1

> <PUBCHEM_SHAPE_SELFOVERLAP>
499.972

> <PUBCHEM_SHAPE_VOLUME>
163.3

> <PUBCHEM_COORDINATE_TYPE>
2
5
10

$$$$
