89479
  -OEChem-11232109463D

 38 40  0     1  0  0  0  0  0999 V2000
    0.4849    0.8933   -1.0370 O   0  0  0  0  0  0  0  0  0  0  0  0
    2.2205   -0.1696   -2.0634 O   0  0  0  0  0  0  0  0  0  0  0  0
   -0.5655   -0.3205    0.8016 C   0  0  1  0  0  0  0  0  0  0  0  0
   -0.1462    1.0717    0.2561 C   0  0  1  0  0  0  0  0  0  0  0  0
   -1.8050   -0.9558    0.0814 C   0  0  0  0  0  0  0  0  0  0  0  0
    1.9241   -0.4407    0.3506 C   0  0  2  0  0  0  0  0  0  0  0  0
    0.6893   -1.2259    0.8343 C   0  0  0  0  0  0  0  0  0  0  0  0
    0.9178    1.6995    1.1815 C   0  0  0  0  0  0  0  0  0  0  0  0
   -1.3332    2.0290    0.1091 C   0  0  0  0  0  0  0  0  0  0  0  0
    2.1486    0.7915    1.2410 C   0  0  0  0  0  0  0  0  0  0  0  0
   -2.9431    0.0944    0.0226 C   0  0  0  0  0  0  0  0  0  0  0  0
   -2.5138    1.4072   -0.6271 C   0  0  0  0  0  0  0  0  0  0  0  0
    1.5923    0.0850   -1.0446 C   0  0  0  0  0  0  0  0  0  0  0  0
   -1.5230   -1.4667   -1.3494 C   0  0  0  0  0  0  0  0  0  0  0  0
   -2.3118   -2.1600    0.9074 C   0  0  0  0  0  0  0  0  0  0  0  0
    3.1643   -1.3324    0.3359 C   0  0  0  0  0  0  0  0  0  0  0  0
   -0.8709   -0.1627    1.8479 H   0  0  0  0  0  0  0  0  0  0  0  0
    0.8486   -1.5762    1.8627 H   0  0  0  0  0  0  0  0  0  0  0  0
    0.5643   -2.1287    0.2300 H   0  0  0  0  0  0  0  0  0  0  0  0
    0.5198    1.8632    2.1899 H   0  0  0  0  0  0  0  0  0  0  0  0
    1.2253    2.6787    0.7928 H   0  0  0  0  0  0  0  0  0  0  0  0
   -1.0240    2.9306   -0.4339 H   0  0  0  0  0  0  0  0  0  0  0  0
   -1.6736    2.3500    1.1021 H   0  0  0  0  0  0  0  0  0  0  0  0
    3.0300    1.3550    0.9095 H   0  0  0  0  0  0  0  0  0  0  0  0
    2.3384    0.4911    2.2788 H   0  0  0  0  0  0  0  0  0  0  0  0
   -3.2981    0.3088    1.0397 H   0  0  0  0  0  0  0  0  0  0  0  0
   -3.8057   -0.3091   -0.5229 H   0  0  0  0  0  0  0  0  0  0  0  0
   -3.3562    2.1089   -0.6123 H   0  0  0  0  0  0  0  0  0  0  0  0
   -2.2612    1.2520   -1.6816 H   0  0  0  0  0  0  0  0  0  0  0  0
   -0.8043   -2.2910   -1.3629 H   0  0  0  0  0  0  0  0  0  0  0  0
   -2.4427   -1.8503   -1.8081 H   0  0  0  0  0  0  0  0  0  0  0  0
   -1.1437   -0.6865   -2.0124 H   0  0  0  0  0  0  0  0  0  0  0  0
   -2.5503   -1.8646    1.9354 H   0  0  0  0  0  0  0  0  0  0  0  0
   -3.2215   -2.5850    0.4678 H   0  0  0  0  0  0  0  0  0  0  0  0
   -1.5654   -2.9598    0.9558 H   0  0  0  0  0  0  0  0  0  0  0  0
    4.0408   -0.7869   -0.0318 H   0  0  0  0  0  0  0  0  0  0  0  0
    3.3957   -1.7047    1.3397 H   0  0  0  0  0  0  0  0  0  0  0  0
    3.0223   -2.1985   -0.3204 H   0  0  0  0  0  0  0  0  0  0  0  0
  1  4  1  0  0  0  0
  1 13  1  0  0  0  0
  2 13  2  0  0  0  0
  3  4  1  0  0  0  0
  3  5  1  0  0  0  0
  3  7  1  0  0  0  0
  3 17  1  0  0  0  0
  4  8  1  0  0  0  0
  4  9  1  0  0  0  0
  5 11  1  0  0  0  0
  5 14  1  0  0  0  0
  5 15  1  0  0  0  0
  6  7  1  0  0  0  0
  6 10  1  0  0  0  0
  6 13  1  0  0  0  0
  6 16  1  0  0  0  0
  7 18  1  0  0  0  0
  7 19  1  0  0  0  0
  8 10  1  0  0  0  0
  8 20  1  0  0  0  0
  8 21  1  0  0  0  0
  9 12  1  0  0  0  0
  9 22  1  0  0  0  0
  9 23  1  0  0  0  0
 10 24  1  0  0  0  0
 10 25  1  0  0  0  0
 11 12  1  0  0  0  0
 11 26  1  0  0  0  0
 11 27  1  0  0  0  0
 12 28  1  0  0  0  0
 12 29  1  0  0  0  0
 14 30  1  0  0  0  0
 14 31  1  0  0  0  0
 14 32  1  0  0  0  0
 15 33  1  0  0  0  0
 15 34  1  0  0  0  0
 15 35  1  0  0  0  0
 16 36  1  0  0  0  0
 16 37  1  0  0  0  0
 16 38  1  0  0  0  0
M  END
> <PUBCHEM_COMPOUND_CID>
89479

> <PUBCHEM_CONFORMER_RMSD>
0.6

> <PUBCHEM_CONFORMER_DIVERSEORDER>
3
4
1
2

> <PUBCHEM_MMFF94_PARTIAL_CHARGES>
5
1 -0.43
13 0.66
2 -0.57
4 0.28
6 0.06

> <PUBCHEM_EFFECTIVE_ROTOR_COUNT>
1.6

> <PUBCHEM_PHARMACOPHORE_FEATURES>
4
1 2 acceptor
3 5 14 15 hydrophobe
6 3 4 5 9 11 12 rings
8 1 3 4 6 7 8 10 13 rings

> <PUBCHEM_HEAVY_ATOM_COUNT>
16

> <PUBCHEM_ATOM_DEF_STEREO_COUNT>
0

> <PUBCHEM_ATOM_UDEF_STEREO_COUNT>
3

> <PUBCHEM_BOND_DEF_STEREO_COUNT>
0

> <PUBCHEM_BOND_UDEF_STEREO_COUNT>
0

> <PUBCHEM_ISOTOPIC_ATOM_COUNT>
0

> <PUBCHEM_COMPONENT_COUNT>
1

> <PUBCHEM_CACTVS_TAUTO_COUNT>
1

> <PUBCHEM_CONFORMER_ID>
00015D8700000003

> <PUBCHEM_MMFF94_ENERGY>
54.1852

> <PUBCHEM_FEATURE_SELFOVERLAP>
20.322

> <PUBCHEM_SHAPE_FINGERPRINT>
10863032 1 18334576841267803908
12138202 97 18200300040055701332
12423570 1 11781890450589135376
12524768 44 18131069376533508261
12716758 59 18337946797046200753
12808571 1 17531259313677052103
13538477 17 18040159517449837415
13581323 91 18338230466619298251
13898156 1 17675924287357468297
14115302 16 18113617867768836183
144361 1 18192171329116469805
14817 1 9987904081528119053
15001771 113 18187086160789263259
15207287 21 17559093407384133798
15219456 202 18201144533953203960
15775835 57 18192989314423405225
16945 1 18263936453056231985
20082192 1 17417249965018884563
20645476 183 17749957631145207395
21501502 16 18200017555719484416
22344851 262 17604995793377724352
22802520 49 18411984667318253515
232386 152 18410005503602146394
23402539 116 17701233859723549133
23419403 2 15523104739698260835
23559900 14 18268423539521111514
2748010 2 18267577082290304329
296302 2 17847057787663532472
5084963 1 17968657095084755113
528886 8 17458628856785132690
5337951 7 18130784512616877504
576247 118 16914292570117801476
81228 2 17485663558674398600

> <PUBCHEM_SHAPE_MULTIPOLES>
317.53
4.1
2.07
1.41
0.21
0.05
-0.49
-0.94
-0.1
-0.89
0.38
0.54
-0.12
0.4

> <PUBCHEM_SHAPE_SELFOVERLAP>
679.776

> <PUBCHEM_SHAPE_VOLUME>
175.5

> <PUBCHEM_COORDINATE_TYPE>
2
5
10

$$$$
