89560
  -OEChem-11232109133D

 28 27  0     1  0  0  0  0  0999 V2000
   -3.5379    1.3323   -0.0038 O   0  0  0  0  0  0  0  0  0  0  0  0
    1.3847    0.6386    0.1593 C   0  0  0  0  0  0  0  0  0  0  0  0
    0.0178    0.0644   -0.2265 C   0  0  0  0  0  0  0  0  0  0  0  0
    2.5543   -0.2859   -0.1860 C   0  0  0  0  0  0  0  0  0  0  0  0
   -1.1471    1.0215    0.0566 C   0  0  0  0  0  0  0  0  0  0  0  0
    3.8895    0.3322    0.2311 C   0  0  0  0  0  0  0  0  0  0  0  0
   -2.5015    0.4025   -0.3135 C   0  0  1  0  0  0  0  0  0  0  0  0
    5.0540   -0.5948   -0.0795 C   0  0  0  0  0  0  0  0  0  0  0  0
   -2.7436   -0.8598    0.4638 C   0  0  0  0  0  0  0  0  0  0  0  0
   -2.9702   -2.0509   -0.1014 C   0  0  0  0  0  0  0  0  0  0  0  0
    1.5247    1.5998   -0.3511 H   0  0  0  0  0  0  0  0  0  0  0  0
    1.3918    0.8485    1.2361 H   0  0  0  0  0  0  0  0  0  0  0  0
   -0.1147   -0.8754    0.3214 H   0  0  0  0  0  0  0  0  0  0  0  0
    0.0221   -0.1871   -1.2945 H   0  0  0  0  0  0  0  0  0  0  0  0
    2.5596   -0.4848   -1.2644 H   0  0  0  0  0  0  0  0  0  0  0  0
    2.4192   -1.2492    0.3203 H   0  0  0  0  0  0  0  0  0  0  0  0
   -1.0086    1.9532   -0.5064 H   0  0  0  0  0  0  0  0  0  0  0  0
   -1.1445    1.3131    1.1153 H   0  0  0  0  0  0  0  0  0  0  0  0
    4.0379    1.2849   -0.2905 H   0  0  0  0  0  0  0  0  0  0  0  0
    3.8808    0.5484    1.3058 H   0  0  0  0  0  0  0  0  0  0  0  0
   -2.5418    0.2116   -1.3925 H   0  0  0  0  0  0  0  0  0  0  0  0
    5.9981   -0.1328    0.2256 H   0  0  0  0  0  0  0  0  0  0  0  0
    4.9525   -1.5448    0.4548 H   0  0  0  0  0  0  0  0  0  0  0  0
    5.1106   -0.8076   -1.1518 H   0  0  0  0  0  0  0  0  0  0  0  0
   -2.7457   -0.7915    1.5490 H   0  0  0  0  0  0  0  0  0  0  0  0
   -3.3676    2.1418   -0.5150 H   0  0  0  0  0  0  0  0  0  0  0  0
   -3.1445   -2.9266    0.5142 H   0  0  0  0  0  0  0  0  0  0  0  0
   -2.9847   -2.1743   -1.1786 H   0  0  0  0  0  0  0  0  0  0  0  0
  1  7  1  0  0  0  0
  1 26  1  0  0  0  0
  2  3  1  0  0  0  0
  2  4  1  0  0  0  0
  2 11  1  0  0  0  0
  2 12  1  0  0  0  0
  3  5  1  0  0  0  0
  3 13  1  0  0  0  0
  3 14  1  0  0  0  0
  4  6  1  0  0  0  0
  4 15  1  0  0  0  0
  4 16  1  0  0  0  0
  5  7  1  0  0  0  0
  5 17  1  0  0  0  0
  5 18  1  0  0  0  0
  6  8  1  0  0  0  0
  6 19  1  0  0  0  0
  6 20  1  0  0  0  0
  7  9  1  0  0  0  0
  7 21  1  0  0  0  0
  8 22  1  0  0  0  0
  8 23  1  0  0  0  0
  8 24  1  0  0  0  0
  9 10  2  0  0  0  0
  9 25  1  0  0  0  0
 10 27  1  0  0  0  0
 10 28  1  0  0  0  0
M  END
> <PUBCHEM_COMPOUND_CID>
89560

> <PUBCHEM_CONFORMER_RMSD>
0.6

> <PUBCHEM_CONFORMER_DIVERSEORDER>
2
187
136
195
62
182
170
154
97
201
188
164
1
81
12
198
129
45
186
180
199
6
174
114
84
169
190
104
25
171
91
11
128
127
161
168
13
200
8
151
61
165
113
196
162
177
118
105
153
117
28
135
15
16
73
192
148
33
41
37
49
34
175
77
126
22
137
166
167
79
27
103
57
44
89
31
157
131
14
197
156
43
18
72
3
189
149
26
88
146
50
10
21
176
76
152
92
159
74
55
32
90
141
87
69
147
185
53
39
181
120
143
70
173
19
100
24
86
96
179
122
139
38
163
52
194
183
60
158
65
172
132
9
160
184
71
121
85
155
58
7
116
99
68
54
144
94
29
133
36
178
4
119
134
125
78
191
82
63
47
101
75
95
5
23
138
140
59
83
142
193
130
17
115
66
107
112
64
56
30
46
42
111
35
80
150
20
145
67
124
98
102
109
123
40
110
48
93
51
108
106

> <PUBCHEM_MMFF94_PARTIAL_CHARGES>
8
1 -0.68
10 -0.3
25 0.15
26 0.4
27 0.15
28 0.15
7 0.42
9 -0.29

> <PUBCHEM_EFFECTIVE_ROTOR_COUNT>
6

> <PUBCHEM_PHARMACOPHORE_FEATURES>
5
1 1 acceptor
1 1 donor
1 10 hydrophobe
1 8 hydrophobe
5 2 3 4 5 6 hydrophobe

> <PUBCHEM_HEAVY_ATOM_COUNT>
10

> <PUBCHEM_ATOM_DEF_STEREO_COUNT>
0

> <PUBCHEM_ATOM_UDEF_STEREO_COUNT>
1

> <PUBCHEM_BOND_DEF_STEREO_COUNT>
0

> <PUBCHEM_BOND_UDEF_STEREO_COUNT>
0

> <PUBCHEM_ISOTOPIC_ATOM_COUNT>
0

> <PUBCHEM_COMPONENT_COUNT>
1

> <PUBCHEM_CACTVS_TAUTO_COUNT>
1

> <PUBCHEM_CONFORMER_ID>
00015DD800000002

> <PUBCHEM_MMFF94_ENERGY>
2.171

> <PUBCHEM_FEATURE_SELFOVERLAP>
25.373

> <PUBCHEM_SHAPE_FINGERPRINT>
10680689 15 18113622270136720740
11987891 27 17458054968056482306
11987891 38 18411139109070818518
12032990 46 18343305872965940804
124424 183 17918270935238632009
12500047 106 18338509755652963917
12757275 245 18335703883340918435
12932764 1 17313653901998071685
14325111 11 18410011052678683308
14577589 140 18130785668152659575
177051 138 18410011082806744918
17834072 33 18261399987991365236
17834074 16 18342461409297201062
18186145 218 14923948976755499980
190213 19 17846500327094981720
1986462 14 18408041818626187062
20279233 1 18060143119546118455
20645464 45 18131359596316698349
20645477 56 18334858260542256909
20645477 70 16916225443093007108
20828058 44 18411135827488652282
21061003 4 17417812880659884881
22485316 2 18335417950720508266
23402539 116 17022897939669520012

> <PUBCHEM_SHAPE_MULTIPOLES>
199.93
9.04
1.47
0.66
8.85
0.49
-0.01
1.96
-0.13
-1.8
0.01
-0.02
0.02
0.16

> <PUBCHEM_SHAPE_SELFOVERLAP>
357.36

> <PUBCHEM_SHAPE_VOLUME>
129.9

> <PUBCHEM_COORDINATE_TYPE>
2
5
10

$$$$
