89802
  -OEChem-11232109263D

 22 22  0     0  0  0  0  0  0999 V2000
    0.3429   -2.5142   -0.1745 O   0  0  0  0  0  0  0  0  0  0  0  0
    2.0816    1.1889   -0.3337 O   0  0  0  0  0  0  0  0  0  0  0  0
    2.3925   -0.8819    0.6221 O   0  0  0  0  0  0  0  0  0  0  0  0
   -1.9748    0.9236    0.0585 C   0  0  0  0  0  0  0  0  0  0  0  0
    0.1986   -0.1317    0.0666 C   0  0  0  0  0  0  0  0  0  0  0  0
   -0.5858    1.0191    0.1443 C   0  0  0  0  0  0  0  0  0  0  0  0
   -0.4062   -1.3781   -0.0969 C   0  0  0  0  0  0  0  0  0  0  0  0
   -2.5795   -0.3226   -0.1051 C   0  0  0  0  0  0  0  0  0  0  0  0
   -1.7952   -1.4734   -0.1827 C   0  0  0  0  0  0  0  0  0  0  0  0
   -2.8139    2.1536    0.1424 C   0  0  0  0  0  0  0  0  0  0  0  0
    1.6469   -0.0106    0.1585 C   0  0  0  0  0  0  0  0  0  0  0  0
    3.4929    1.4272   -0.2994 C   0  0  0  0  0  0  0  0  0  0  0  0
   -0.1352    1.9985    0.2879 H   0  0  0  0  0  0  0  0  0  0  0  0
   -3.6607   -0.4108   -0.1712 H   0  0  0  0  0  0  0  0  0  0  0  0
   -2.2799   -2.4378   -0.3096 H   0  0  0  0  0  0  0  0  0  0  0  0
   -3.0078    2.4054    1.1897 H   0  0  0  0  0  0  0  0  0  0  0  0
   -2.3152    3.0021   -0.3383 H   0  0  0  0  0  0  0  0  0  0  0  0
   -3.7741    2.0166   -0.3666 H   0  0  0  0  0  0  0  0  0  0  0  0
   -0.2489   -3.2779   -0.2868 H   0  0  0  0  0  0  0  0  0  0  0  0
    4.0163    0.6796   -0.9026 H   0  0  0  0  0  0  0  0  0  0  0  0
    3.8527    1.4114    0.7336 H   0  0  0  0  0  0  0  0  0  0  0  0
    3.6814    2.4171   -0.7232 H   0  0  0  0  0  0  0  0  0  0  0  0
  1  7  1  0  0  0  0
  1 19  1  0  0  0  0
  2 11  1  0  0  0  0
  2 12  1  0  0  0  0
  3 11  2  0  0  0  0
  4  6  2  0  0  0  0
  4  8  1  0  0  0  0
  4 10  1  0  0  0  0
  5  6  1  0  0  0  0
  5  7  2  0  0  0  0
  5 11  1  0  0  0  0
  6 13  1  0  0  0  0
  7  9  1  0  0  0  0
  8  9  2  0  0  0  0
  8 14  1  0  0  0  0
  9 15  1  0  0  0  0
 10 16  1  0  0  0  0
 10 17  1  0  0  0  0
 10 18  1  0  0  0  0
 12 20  1  0  0  0  0
 12 21  1  0  0  0  0
 12 22  1  0  0  0  0
M  END
> <PUBCHEM_COMPOUND_CID>
89802

> <PUBCHEM_CONFORMER_RMSD>
0.6

> <PUBCHEM_CONFORMER_DIVERSEORDER>
1
2

> <PUBCHEM_MMFF94_PARTIAL_CHARGES>
16
1 -0.53
10 0.14
11 0.63
12 0.28
13 0.15
14 0.15
15 0.15
19 0.45
2 -0.43
3 -0.57
4 -0.14
5 0.09
6 -0.15
7 0.08
8 -0.15
9 -0.15

> <PUBCHEM_EFFECTIVE_ROTOR_COUNT>
2

> <PUBCHEM_PHARMACOPHORE_FEATURES>
3
1 1 donor
1 3 acceptor
6 4 5 6 7 8 9 rings

> <PUBCHEM_HEAVY_ATOM_COUNT>
12

> <PUBCHEM_ATOM_DEF_STEREO_COUNT>
0

> <PUBCHEM_ATOM_UDEF_STEREO_COUNT>
0

> <PUBCHEM_BOND_DEF_STEREO_COUNT>
0

> <PUBCHEM_BOND_UDEF_STEREO_COUNT>
0

> <PUBCHEM_ISOTOPIC_ATOM_COUNT>
0

> <PUBCHEM_COMPONENT_COUNT>
1

> <PUBCHEM_CACTVS_TAUTO_COUNT>
4

> <PUBCHEM_CONFORMER_ID>
00015ECA00000001

> <PUBCHEM_MMFF94_ENERGY>
33.7436

> <PUBCHEM_FEATURE_SELFOVERLAP>
15.223

> <PUBCHEM_SHAPE_FINGERPRINT>
11206711 2 18270391810656551069
12716758 59 18270687583621490312
12932764 1 17632571699346907882
13024252 1 11603079717805835727
13380535 76 18267016168383567691
14325111 11 18410575076147250704
14648413 74 18121787118988530195
15775835 57 18335426759245173876
16945 1 18195520613301679825
193761 8 18339644417456848055
20510252 161 18272376428902171617
20653085 51 18339372863463850403
20871998 184 18056487376654720231
21040471 1 18341609270304696203
21501502 16 18410570656667984203
23402539 116 18198897209194630967
23463225 33 18263638481284288730
23552423 10 18337952281609038023
23559900 14 18131352974067900108
241688 4 16754379311079388827
2748010 2 18411140220770684797
369184 2 16226315014729189257
5084963 1 18202845439475372675
53812653 8 18338517546465091563
6333449 129 18268992157886909748
7364860 26 18198061374399674030

> <PUBCHEM_SHAPE_MULTIPOLES>
229.35
4.56
2.28
0.65
2.33
0.37
-0.01
-2.56
0.16
-0.62
0.09
0.06
-0.01
-0.39

> <PUBCHEM_SHAPE_SELFOVERLAP>
478.357

> <PUBCHEM_SHAPE_VOLUME>
131.8

> <PUBCHEM_COORDINATE_TYPE>
2
5
10

$$$$
