90473619
  -OEChem-11232109203D

 47 49  0     1  0  0  0  0  0999 V2000
   -0.9289   -1.7713    0.8464 O   0  0  0  0  0  0  0  0  0  0  0  0
   -2.2878   -1.7859   -1.0216 O   0  0  0  0  0  0  0  0  0  0  0  0
   -0.6163    0.3198   -0.3033 C   0  0  1  0  0  0  0  0  0  0  0  0
   -0.0723    1.6486    0.3002 C   0  0  2  0  0  0  0  0  0  0  0  0
   -1.4848    2.2721    0.0023 C   0  0  0  0  0  0  0  0  0  0  0  0
    0.0409   -0.9915    0.1428 C   0  0  1  0  0  0  0  0  0  0  0  0
   -2.0213    0.8050    0.1659 C   0  0  0  0  0  0  0  0  0  0  0  0
    2.4960   -0.1424    0.4349 C   0  0  2  0  0  0  0  0  0  0  0  0
    1.2420   -0.7891    1.0810 C   0  0  0  0  0  0  0  0  0  0  0  0
    1.2137    2.0751   -0.3777 C   0  0  0  0  0  0  0  0  0  0  0  0
    2.4156    1.4138    0.3056 C   0  0  0  0  0  0  0  0  0  0  0  0
    0.5004   -1.7951   -1.0873 C   0  0  0  0  0  0  0  0  0  0  0  0
    2.8379   -0.8363   -0.9081 C   0  0  0  0  0  0  0  0  0  0  0  0
    1.6557   -1.1237   -1.8261 C   0  0  0  0  0  0  0  0  0  0  0  0
   -1.9787    3.2168    1.0981 C   0  0  0  0  0  0  0  0  0  0  0  0
   -1.6887    2.8982   -1.3782 C   0  0  0  0  0  0  0  0  0  0  0  0
    3.6931   -0.4087    1.3913 C   0  0  0  0  0  0  0  0  0  0  0  0
   -2.0478   -2.0965    0.1373 C   0  0  0  0  0  0  0  0  0  0  0  0
   -2.9688   -2.9088    0.9964 C   0  0  0  0  0  0  0  0  0  0  0  0
   -0.6108    0.3492   -1.4044 H   0  0  0  0  0  0  0  0  0  0  0  0
    0.0756    1.6217    1.3909 H   0  0  0  0  0  0  0  0  0  0  0  0
   -2.8724    0.5665   -0.4778 H   0  0  0  0  0  0  0  0  0  0  0  0
   -2.2743    0.5359    1.1990 H   0  0  0  0  0  0  0  0  0  0  0  0
    0.9462   -0.2450    1.9867 H   0  0  0  0  0  0  0  0  0  0  0  0
    1.5210   -1.7843    1.4606 H   0  0  0  0  0  0  0  0  0  0  0  0
    1.3265    3.1619   -0.2803 H   0  0  0  0  0  0  0  0  0  0  0  0
    1.2078    1.8648   -1.4511 H   0  0  0  0  0  0  0  0  0  0  0  0
    3.3219    1.7725   -0.2014 H   0  0  0  0  0  0  0  0  0  0  0  0
    2.4667    1.8361    1.3200 H   0  0  0  0  0  0  0  0  0  0  0  0
   -0.2775   -1.9615   -1.8354 H   0  0  0  0  0  0  0  0  0  0  0  0
    0.8107   -2.7996   -0.7675 H   0  0  0  0  0  0  0  0  0  0  0  0
    3.3120   -1.8050   -0.6955 H   0  0  0  0  0  0  0  0  0  0  0  0
    3.5894   -0.2549   -1.4567 H   0  0  0  0  0  0  0  0  0  0  0  0
    1.3247   -0.2006   -2.3099 H   0  0  0  0  0  0  0  0  0  0  0  0
    1.9894   -1.7802   -2.6392 H   0  0  0  0  0  0  0  0  0  0  0  0
   -1.8625    2.7793    2.0957 H   0  0  0  0  0  0  0  0  0  0  0  0
   -3.0403    3.4503    0.9624 H   0  0  0  0  0  0  0  0  0  0  0  0
   -1.4184    4.1577    1.0816 H   0  0  0  0  0  0  0  0  0  0  0  0
   -1.3542    2.2473   -2.1913 H   0  0  0  0  0  0  0  0  0  0  0  0
   -2.7484    3.1161   -1.5508 H   0  0  0  0  0  0  0  0  0  0  0  0
   -1.1342    3.8393   -1.4623 H   0  0  0  0  0  0  0  0  0  0  0  0
    3.5181    0.0337    2.3788 H   0  0  0  0  0  0  0  0  0  0  0  0
    4.6209    0.0162    0.9912 H   0  0  0  0  0  0  0  0  0  0  0  0
    3.8585   -1.4822    1.5394 H   0  0  0  0  0  0  0  0  0  0  0  0
   -2.4714   -3.8323    1.3031 H   0  0  0  0  0  0  0  0  0  0  0  0
   -3.8638   -3.1684    0.4237 H   0  0  0  0  0  0  0  0  0  0  0  0
   -3.2713   -2.3251    1.8695 H   0  0  0  0  0  0  0  0  0  0  0  0
  1  6  1  0  0  0  0
  1 18  1  0  0  0  0
  2 18  2  0  0  0  0
  3  4  1  0  0  0  0
  3  6  1  0  0  0  0
  3  7  1  0  0  0  0
  3 20  1  0  0  0  0
  4  5  1  0  0  0  0
  4 10  1  0  0  0  0
  4 21  1  0  0  0  0
  5  7  1  0  0  0  0
  5 15  1  0  0  0  0
  5 16  1  0  0  0  0
  6  9  1  0  0  0  0
  6 12  1  0  0  0  0
  7 22  1  0  0  0  0
  7 23  1  0  0  0  0
  8  9  1  0  0  0  0
  8 11  1  0  0  0  0
  8 13  1  0  0  0  0
  8 17  1  0  0  0  0
  9 24  1  0  0  0  0
  9 25  1  0  0  0  0
 10 11  1  0  0  0  0
 10 26  1  0  0  0  0
 10 27  1  0  0  0  0
 11 28  1  0  0  0  0
 11 29  1  0  0  0  0
 12 14  1  0  0  0  0
 12 30  1  0  0  0  0
 12 31  1  0  0  0  0
 13 14  1  0  0  0  0
 13 32  1  0  0  0  0
 13 33  1  0  0  0  0
 14 34  1  0  0  0  0
 14 35  1  0  0  0  0
 15 36  1  0  0  0  0
 15 37  1  0  0  0  0
 15 38  1  0  0  0  0
 16 39  1  0  0  0  0
 16 40  1  0  0  0  0
 16 41  1  0  0  0  0
 17 42  1  0  0  0  0
 17 43  1  0  0  0  0
 17 44  1  0  0  0  0
 18 19  1  0  0  0  0
 19 45  1  0  0  0  0
 19 46  1  0  0  0  0
 19 47  1  0  0  0  0
M  END
> <PUBCHEM_COMPOUND_CID>
90473619

> <PUBCHEM_CONFORMER_RMSD>
0.6

> <PUBCHEM_CONFORMER_DIVERSEORDER>
1
2
3

> <PUBCHEM_MMFF94_PARTIAL_CHARGES>
5
1 -0.43
18 0.66
19 0.06
2 -0.57
6 0.28

> <PUBCHEM_EFFECTIVE_ROTOR_COUNT>
3.6

> <PUBCHEM_PHARMACOPHORE_FEATURES>
5
1 2 acceptor
3 5 15 16 hydrophobe
4 3 4 5 7 rings
6 6 8 9 12 13 14 rings
7 3 4 6 8 9 10 11 rings

> <PUBCHEM_HEAVY_ATOM_COUNT>
19

> <PUBCHEM_ATOM_DEF_STEREO_COUNT>
4

> <PUBCHEM_ATOM_UDEF_STEREO_COUNT>
0

> <PUBCHEM_BOND_DEF_STEREO_COUNT>
0

> <PUBCHEM_BOND_UDEF_STEREO_COUNT>
0

> <PUBCHEM_ISOTOPIC_ATOM_COUNT>
0

> <PUBCHEM_COMPONENT_COUNT>
1

> <PUBCHEM_CACTVS_TAUTO_COUNT>
1

> <PUBCHEM_CONFORMER_ID>
0564849300000001

> <PUBCHEM_MMFF94_ENERGY>
71.2695

> <PUBCHEM_FEATURE_SELFOVERLAP>
26.15

> <PUBCHEM_SHAPE_FINGERPRINT>
104564 63 18268440207297390637
108634 29 18410001127278405063
11067466 332 17254013956108491400
11680611 10 18187359922394892664
116883 192 18342747325100933415
12423570 1 17987516077696862198
12532896 13 18124029027392149929
12716301 132 18120676654972681522
12730499 353 17471012476462606149
13132413 78 18048603908728008861
13134695 92 17906718547270662319
13140716 1 18338516451533300601
13538477 17 18041000617954151378
14178342 30 17764302847668418465
14790565 3 17329163866982356273
14817 1 18336830801318274686
14955137 171 17332549254382165714
15309172 13 17977667506912217425
15375462 478 18193257801650926490
15490181 8 18270679757954180916
15852999 172 17982711009887902556
15881359 60 17916851551869092966
16945 1 18408886200490555898
17357779 13 18271799168275878311
19591789 44 17834129549898530587
20645476 183 17607547746859616806
20739085 24 17977695274149664091
20905425 154 18193560201233692588
21041028 32 18194409007536784331
21524375 3 17906455420367820807
22182313 1 17989211417648135286
22802520 49 18129393600506545630
23184049 29 18408038537387184978
2334 1 18122344837603141633
23388829 49 17839185460634060653
23419403 2 14110417161946367470
23557571 272 18413671326824324062
23558518 356 18270115691509397997
23559900 14 17982739572296731902
25 1 17551522045819297276
2748010 2 18268423719017960325
3060560 45 17832983845549560525
3071541 236 18263912246557131321
31174 14 17468763339238130203
3250762 1 18200044940694766270
5845 1 18197803143812193913
58807428 26 17689705372905424432
5939293 188 17764314237826150483
6442390 28 17908729249327262969
68419 9 17605013467041891318
7364860 26 17403745939505693539
81228 2 18409737244255512979
9981440 41 17199629006248850842

> <PUBCHEM_SHAPE_MULTIPOLES>
379.27
4.45
3.74
1.39
2.03
0.14
0.25
-0.05
-0.88
-4.08
-0.28
0.4
0.15
0.63

> <PUBCHEM_SHAPE_SELFOVERLAP>
793.914

> <PUBCHEM_SHAPE_VOLUME>
213.4

> <PUBCHEM_COORDINATE_TYPE>
2
5
10

$$$$
