90586
  -OEChem-11232109143D

 34 34  0     1  0  0  0  0  0999 V2000
   -2.0803    0.7253   -0.0997 O   0  0  0  0  0  0  0  0  0  0  0  0
    1.1766   -1.2329   -0.0408 C   0  0  0  0  0  0  0  0  0  0  0  0
    2.0771   -0.0238   -0.3886 C   0  0  0  0  0  0  0  0  0  0  0  0
    1.6233    1.2913    0.2668 C   0  0  2  0  0  0  0  0  0  0  0  0
   -0.3000   -0.8865   -0.3274 C   0  0  0  0  0  0  0  0  0  0  0  0
   -0.7554    0.4191    0.3269 C   0  0  1  0  0  0  0  0  0  0  0  0
    0.1547    1.5825   -0.0574 C   0  0  0  0  0  0  0  0  0  0  0  0
    1.5883   -2.4305   -0.9181 C   0  0  0  0  0  0  0  0  0  0  0  0
    1.3610   -1.6419    1.4332 C   0  0  0  0  0  0  0  0  0  0  0  0
    2.5116    2.4499   -0.1870 C   0  0  0  0  0  0  0  0  0  0  0  0
   -2.9841   -0.3195    0.2273 C   0  0  0  0  0  0  0  0  0  0  0  0
   -4.3728    0.0670   -0.2351 C   0  0  0  0  0  0  0  0  0  0  0  0
    2.0860    0.1132   -1.4792 H   0  0  0  0  0  0  0  0  0  0  0  0
    3.1146   -0.2371   -0.0994 H   0  0  0  0  0  0  0  0  0  0  0  0
    1.7303    1.2037    1.3549 H   0  0  0  0  0  0  0  0  0  0  0  0
   -0.8926   -1.7389    0.0210 H   0  0  0  0  0  0  0  0  0  0  0  0
   -0.4700   -0.8221   -1.4112 H   0  0  0  0  0  0  0  0  0  0  0  0
   -0.7609    0.3203    1.4193 H   0  0  0  0  0  0  0  0  0  0  0  0
   -0.1772    2.4903    0.4626 H   0  0  0  0  0  0  0  0  0  0  0  0
    0.0371    1.7997   -1.1279 H   0  0  0  0  0  0  0  0  0  0  0  0
    0.9721   -3.3107   -0.7022 H   0  0  0  0  0  0  0  0  0  0  0  0
    1.4760   -2.2003   -1.9837 H   0  0  0  0  0  0  0  0  0  0  0  0
    2.6353   -2.7050   -0.7465 H   0  0  0  0  0  0  0  0  0  0  0  0
    0.7475   -2.5167    1.6778 H   0  0  0  0  0  0  0  0  0  0  0  0
    2.4052   -1.9047    1.6384 H   0  0  0  0  0  0  0  0  0  0  0  0
    1.0833   -0.8452    2.1288 H   0  0  0  0  0  0  0  0  0  0  0  0
    2.4509    2.5992   -1.2703 H   0  0  0  0  0  0  0  0  0  0  0  0
    2.2108    3.3832    0.3006 H   0  0  0  0  0  0  0  0  0  0  0  0
    3.5588    2.2597    0.0707 H   0  0  0  0  0  0  0  0  0  0  0  0
   -2.7512   -1.2457   -0.3023 H   0  0  0  0  0  0  0  0  0  0  0  0
   -2.9846   -0.4992    1.3079 H   0  0  0  0  0  0  0  0  0  0  0  0
   -5.0972   -0.7185   -0.0015 H   0  0  0  0  0  0  0  0  0  0  0  0
   -4.6938    0.9963    0.2472 H   0  0  0  0  0  0  0  0  0  0  0  0
   -4.3845    0.2491   -1.3150 H   0  0  0  0  0  0  0  0  0  0  0  0
  1  6  1  0  0  0  0
  1 11  1  0  0  0  0
  2  3  1  0  0  0  0
  2  5  1  0  0  0  0
  2  8  1  0  0  0  0
  2  9  1  0  0  0  0
  3  4  1  0  0  0  0
  3 13  1  0  0  0  0
  3 14  1  0  0  0  0
  4  7  1  0  0  0  0
  4 10  1  0  0  0  0
  4 15  1  0  0  0  0
  5  6  1  0  0  0  0
  5 16  1  0  0  0  0
  5 17  1  0  0  0  0
  6  7  1  0  0  0  0
  6 18  1  0  0  0  0
  7 19  1  0  0  0  0
  7 20  1  0  0  0  0
  8 21  1  0  0  0  0
  8 22  1  0  0  0  0
  8 23  1  0  0  0  0
  9 24  1  0  0  0  0
  9 25  1  0  0  0  0
  9 26  1  0  0  0  0
 10 27  1  0  0  0  0
 10 28  1  0  0  0  0
 10 29  1  0  0  0  0
 11 12  1  0  0  0  0
 11 30  1  0  0  0  0
 11 31  1  0  0  0  0
 12 32  1  0  0  0  0
 12 33  1  0  0  0  0
 12 34  1  0  0  0  0
M  END
> <PUBCHEM_COMPOUND_CID>
90586

> <PUBCHEM_CONFORMER_RMSD>
0.6

> <PUBCHEM_CONFORMER_DIVERSEORDER>
2
4
3
6
7
8
5
1

> <PUBCHEM_MMFF94_PARTIAL_CHARGES>
3
1 -0.56
11 0.28
6 0.28

> <PUBCHEM_EFFECTIVE_ROTOR_COUNT>
3.2

> <PUBCHEM_PHARMACOPHORE_FEATURES>
3
1 1 acceptor
3 2 8 9 hydrophobe
6 2 3 4 5 6 7 rings

> <PUBCHEM_HEAVY_ATOM_COUNT>
12

> <PUBCHEM_ATOM_DEF_STEREO_COUNT>
2

> <PUBCHEM_ATOM_UDEF_STEREO_COUNT>
0

> <PUBCHEM_BOND_DEF_STEREO_COUNT>
0

> <PUBCHEM_BOND_UDEF_STEREO_COUNT>
0

> <PUBCHEM_ISOTOPIC_ATOM_COUNT>
0

> <PUBCHEM_COMPONENT_COUNT>
1

> <PUBCHEM_CACTVS_TAUTO_COUNT>
1

> <PUBCHEM_CONFORMER_ID>
000161DA00000002

> <PUBCHEM_MMFF94_ENERGY>
28.7923

> <PUBCHEM_FEATURE_SELFOVERLAP>
15.223

> <PUBCHEM_SHAPE_FINGERPRINT>
1 1 18339361967342972972
10980938 120 18413387657293391957
12346645 6 18413105078293795525
12423570 1 15220051546618467822
12932764 1 17895197637075676639
13380535 76 18337390572842766306
14251717 144 18413385458285798431
14817 1 10760016378322123330
15757776 16 18335136471011097259
15775835 57 18268149940533129221
15906896 17 17541943530268160346
161256 15 18336547122870470485
16945 1 18341349824273210490
170605 34 18336827597251435929
17990270 104 18268431239510911799
20201158 50 18408325462756729875
20645476 183 17389675399269492692
20645477 70 18410851054267345295
20653091 64 18337672992796756312
20708731 107 18272375247733294046
20711985 344 17258217367655064946
20871998 22 18125439709300697094
21040471 1 18051975011273300900
21499 59 18267300031088074469
21501502 16 18264489490563127413
21524375 3 18192990645868600104
23402655 69 18342168986812590093
23419403 2 15867959887503075962
23530152 11 18197782300198925286
23552423 10 18337114466786347529
241688 4 17764035662047271322
257057 1 17757822343097443138
2748010 2 18122642805338567564
3060560 45 18343866619100220382
3071541 37 18335708273055724172
366044 4 18268711795623337296
449060 62 18411985797158565177
528862 383 18409158930898040641
581208 293 18340762732393215789
7364860 26 18343021077541712446
81228 2 17332233204734307440
81539 233 18261107534250116269

> <PUBCHEM_SHAPE_MULTIPOLES>
241.09
4.95
2.46
0.91
7.38
0.06
0.18
-1.01
-0.4
-2.59
-0.23
-0.35
0.46
0

> <PUBCHEM_SHAPE_SELFOVERLAP>
464.848

> <PUBCHEM_SHAPE_VOLUME>
148.1

> <PUBCHEM_COORDINATE_TYPE>
2
5
10

$$$$
