90776
  -OEChem-11232109043D

 30 29  0     1  0  0  0  0  0999 V2000
   -1.7072   -1.7375   -1.1615 O   0  0  0  0  0  0  0  0  0  0  0  0
   -1.6357    1.0548   -0.1571 C   0  0  1  0  0  0  0  0  0  0  0  0
   -0.1353    0.9731   -0.5120 C   0  0  0  0  0  0  0  0  0  0  0  0
    0.7754    0.9128    0.7190 C   0  0  0  0  0  0  0  0  0  0  0  0
   -2.4678    1.3459   -1.4115 C   0  0  0  0  0  0  0  0  0  0  0  0
   -2.1648   -0.1581    0.5783 C   0  0  0  0  0  0  0  0  0  0  0  0
    2.2251    0.9284    0.3222 C   0  0  0  0  0  0  0  0  0  0  0  0
    3.0095   -0.1313    0.0492 C   0  0  0  0  0  0  0  0  0  0  0  0
   -2.1424   -1.5099   -0.0396 C   0  0  0  0  0  0  0  0  0  0  0  0
   -2.6773   -0.0959    1.8160 C   0  0  0  0  0  0  0  0  0  0  0  0
    4.4577   -0.0516   -0.3438 C   0  0  0  0  0  0  0  0  0  0  0  0
    2.4628   -1.5307    0.1407 C   0  0  0  0  0  0  0  0  0  0  0  0
   -1.7581    1.9318    0.4949 H   0  0  0  0  0  0  0  0  0  0  0  0
    0.0589    0.1133   -1.1644 H   0  0  0  0  0  0  0  0  0  0  0  0
    0.1319    1.8624   -1.0998 H   0  0  0  0  0  0  0  0  0  0  0  0
    0.5899    1.7868    1.3562 H   0  0  0  0  0  0  0  0  0  0  0  0
    0.5464    0.0435    1.3434 H   0  0  0  0  0  0  0  0  0  0  0  0
   -3.5356    1.4023   -1.1722 H   0  0  0  0  0  0  0  0  0  0  0  0
   -2.1768    2.3073   -1.8491 H   0  0  0  0  0  0  0  0  0  0  0  0
   -2.3324    0.5802   -2.1821 H   0  0  0  0  0  0  0  0  0  0  0  0
    2.6652    1.9207    0.2350 H   0  0  0  0  0  0  0  0  0  0  0  0
   -2.5485   -2.3276    0.5802 H   0  0  0  0  0  0  0  0  0  0  0  0
   -2.7336    0.8482    2.3487 H   0  0  0  0  0  0  0  0  0  0  0  0
   -3.0532   -0.9708    2.3365 H   0  0  0  0  0  0  0  0  0  0  0  0
    4.8098    0.9846   -0.3774 H   0  0  0  0  0  0  0  0  0  0  0  0
    4.6089   -0.4888   -1.3359 H   0  0  0  0  0  0  0  0  0  0  0  0
    5.0789   -0.5931    0.3769 H   0  0  0  0  0  0  0  0  0  0  0  0
    1.3797   -1.5906    0.2642 H   0  0  0  0  0  0  0  0  0  0  0  0
    2.9267   -2.0583    0.9808 H   0  0  0  0  0  0  0  0  0  0  0  0
    2.6984   -2.0809   -0.7773 H   0  0  0  0  0  0  0  0  0  0  0  0
  1  9  2  0  0  0  0
  2  3  1  0  0  0  0
  2  5  1  0  0  0  0
  2  6  1  0  0  0  0
  2 13  1  0  0  0  0
  3  4  1  0  0  0  0
  3 14  1  0  0  0  0
  3 15  1  0  0  0  0
  4  7  1  0  0  0  0
  4 16  1  0  0  0  0
  4 17  1  0  0  0  0
  5 18  1  0  0  0  0
  5 19  1  0  0  0  0
  5 20  1  0  0  0  0
  6  9  1  0  0  0  0
  6 10  2  0  0  0  0
  7  8  2  0  0  0  0
  7 21  1  0  0  0  0
  8 11  1  0  0  0  0
  8 12  1  0  0  0  0
  9 22  1  0  0  0  0
 10 23  1  0  0  0  0
 10 24  1  0  0  0  0
 11 25  1  0  0  0  0
 11 26  1  0  0  0  0
 11 27  1  0  0  0  0
 12 28  1  0  0  0  0
 12 29  1  0  0  0  0
 12 30  1  0  0  0  0
M  END
> <PUBCHEM_COMPOUND_CID>
90776

> <PUBCHEM_CONFORMER_RMSD>
0.6

> <PUBCHEM_CONFORMER_DIVERSEORDER>
1
49
119
183
77
135
110
171
205
111
102
192
182
64
202
31
189
166
76
163
25
196
127
191
56
177
96
161
133
158
34
67
50
181
37
141
116
43
107
62
10
143
30
83
149
48
114
82
165
59
184
190
39
52
170
27
66
19
113
74
187
92
84
136
131
154
21
206
144
185
105
79
22
179
51
120
188
40
134
65
20
176
168
70
73
95
112
15
137
90
195
9
97
72
125
140
157
7
197
117
101
100
150
194
8
198
207
174
78
203
164
58
201
99
60
38
81
200
29
193
106
16
167
162
115
85
186
4
103
54
138
129
26
28
55
33
139
155
146
104
204
45
178
156
89
13
108
18
86
160
57
199
128
24
17
172
180
152
71
87
123
118
68
109
75
173
36
126
69
61
63
47
121
175
153
53
12
41
2
44
142
93
14
132
42
169
91
147
5
124
23
88
148
80
130
46
122
32
94
151
11
6
98
35
159
3
145

> <PUBCHEM_MMFF94_PARTIAL_CHARGES>
14
1 -0.57
10 -0.3
11 0.14
12 0.14
2 0.14
21 0.15
22 0.06
23 0.15
24 0.15
4 0.14
6 -0.12
7 -0.29
8 -0.28
9 0.5

> <PUBCHEM_EFFECTIVE_ROTOR_COUNT>
5

> <PUBCHEM_PHARMACOPHORE_FEATURES>
5
1 1 acceptor
1 10 hydrophobe
1 5 hydrophobe
3 8 11 12 hydrophobe
5 2 3 4 6 7 hydrophobe

> <PUBCHEM_HEAVY_ATOM_COUNT>
12

> <PUBCHEM_ATOM_DEF_STEREO_COUNT>
0

> <PUBCHEM_ATOM_UDEF_STEREO_COUNT>
1

> <PUBCHEM_BOND_DEF_STEREO_COUNT>
0

> <PUBCHEM_BOND_UDEF_STEREO_COUNT>
0

> <PUBCHEM_ISOTOPIC_ATOM_COUNT>
0

> <PUBCHEM_COMPONENT_COUNT>
1

> <PUBCHEM_CACTVS_TAUTO_COUNT>
1

> <PUBCHEM_CONFORMER_ID>
0001629800000001

> <PUBCHEM_MMFF94_ENERGY>
11.4291

> <PUBCHEM_FEATURE_SELFOVERLAP>
25.377

> <PUBCHEM_SHAPE_FINGERPRINT>
12251169 10 17988655115549610193
12932764 1 18409165524005344488
13024252 1 16660361481075541033
13296909 8 13686290266584411625
14577589 140 18334858290311212973
15375462 189 18412552011323944714
15775835 57 18412268324138486842
18619055 16 18264479586315308098
20201158 50 18340201899848089378
20279233 1 18340756079546909624
20281407 28 18411980256671690056
20523700 14 18114458972784070606
20645477 70 18268140955841367366
20871999 31 17967245395190273173
21061003 4 18341338863422271544
23402539 116 16950561057104646836
23557571 272 14706928462227998542
3248919 1 17346877858066385636
528716 315 17240770583528374768
8030462 33 17168126958214089024

> <PUBCHEM_SHAPE_MULTIPOLES>
241.09
6.4
1.67
1.25
6.2
0.36
-0.16
0.73
0.12
-0.7
0.47
-1.2
0.03
0.4

> <PUBCHEM_SHAPE_SELFOVERLAP>
452.564

> <PUBCHEM_SHAPE_VOLUME>
150.6

> <PUBCHEM_COORDINATE_TYPE>
2
5
10

$$$$
