90790
  -OEChem-11232109273D

 32 31  0     1  0  0  0  0  0999 V2000
    3.1867    0.6340    1.4017 O   0  0  0  0  0  0  0  0  0  0  0  0
   -4.3789   -1.5453    0.0719 O   0  0  0  0  0  0  0  0  0  0  0  0
   -1.6195    1.0594    0.0548 C   0  0  2  0  0  0  0  0  0  0  0  0
   -0.3724    0.1568    0.1675 C   0  0  0  0  0  0  0  0  0  0  0  0
    0.8683    0.8825    0.7107 C   0  0  0  0  0  0  0  0  0  0  0  0
   -2.8668    0.2581   -0.3700 C   0  0  0  0  0  0  0  0  0  0  0  0
    2.0646   -0.0710    0.8713 C   0  0  1  0  0  0  0  0  0  0  0  0
   -1.4049    2.2078   -0.9379 C   0  0  0  0  0  0  0  0  0  0  0  0
   -3.2368   -0.8704    0.5853 C   0  0  0  0  0  0  0  0  0  0  0  0
    2.4572   -0.7467   -0.4268 C   0  0  0  0  0  0  0  0  0  0  0  0
    2.8493    0.1199   -1.5911 C   0  0  0  0  0  0  0  0  0  0  0  0
    2.4532   -2.0851   -0.5375 C   0  0  0  0  0  0  0  0  0  0  0  0
   -1.8203    1.4984    1.0408 H   0  0  0  0  0  0  0  0  0  0  0  0
   -0.1653   -0.2759   -0.8181 H   0  0  0  0  0  0  0  0  0  0  0  0
   -0.5755   -0.6778    0.8459 H   0  0  0  0  0  0  0  0  0  0  0  0
    0.6362    1.3303    1.6856 H   0  0  0  0  0  0  0  0  0  0  0  0
    1.1530    1.7211    0.0655 H   0  0  0  0  0  0  0  0  0  0  0  0
   -2.7186   -0.1596   -1.3748 H   0  0  0  0  0  0  0  0  0  0  0  0
   -3.7261    0.9356   -0.4615 H   0  0  0  0  0  0  0  0  0  0  0  0
    1.8011   -0.8296    1.6195 H   0  0  0  0  0  0  0  0  0  0  0  0
   -2.3207    2.7974   -1.0550 H   0  0  0  0  0  0  0  0  0  0  0  0
   -1.1175    1.8302   -1.9250 H   0  0  0  0  0  0  0  0  0  0  0  0
   -0.6257    2.8939   -0.5937 H   0  0  0  0  0  0  0  0  0  0  0  0
   -2.4461   -1.6185    0.6684 H   0  0  0  0  0  0  0  0  0  0  0  0
   -3.4691   -0.4919    1.5854 H   0  0  0  0  0  0  0  0  0  0  0  0
    2.9068    1.0449    2.2374 H   0  0  0  0  0  0  0  0  0  0  0  0
    3.1974   -0.4722   -2.4445 H   0  0  0  0  0  0  0  0  0  0  0  0
    2.0013    0.7205   -1.9336 H   0  0  0  0  0  0  0  0  0  0  0  0
    3.6635    0.7948   -1.3084 H   0  0  0  0  0  0  0  0  0  0  0  0
    2.1705   -2.7211    0.2948 H   0  0  0  0  0  0  0  0  0  0  0  0
    2.7308   -2.5769   -1.4638 H   0  0  0  0  0  0  0  0  0  0  0  0
   -5.1061   -0.9011    0.0299 H   0  0  0  0  0  0  0  0  0  0  0  0
  1  7  1  0  0  0  0
  1 26  1  0  0  0  0
  2  9  1  0  0  0  0
  2 32  1  0  0  0  0
  3  4  1  0  0  0  0
  3  6  1  0  0  0  0
  3  8  1  0  0  0  0
  3 13  1  0  0  0  0
  4  5  1  0  0  0  0
  4 14  1  0  0  0  0
  4 15  1  0  0  0  0
  5  7  1  0  0  0  0
  5 16  1  0  0  0  0
  5 17  1  0  0  0  0
  6  9  1  0  0  0  0
  6 18  1  0  0  0  0
  6 19  1  0  0  0  0
  7 10  1  0  0  0  0
  7 20  1  0  0  0  0
  8 21  1  0  0  0  0
  8 22  1  0  0  0  0
  8 23  1  0  0  0  0
  9 24  1  0  0  0  0
  9 25  1  0  0  0  0
 10 11  1  0  0  0  0
 10 12  2  0  0  0  0
 11 27  1  0  0  0  0
 11 28  1  0  0  0  0
 11 29  1  0  0  0  0
 12 30  1  0  0  0  0
 12 31  1  0  0  0  0
M  END
> <PUBCHEM_COMPOUND_CID>
90790

> <PUBCHEM_CONFORMER_RMSD>
0.6

> <PUBCHEM_CONFORMER_DIVERSEORDER>
1
166
191
187
33
66
211
253
218
98
110
13
49
150
239
158
219
36
178
194
188
97
77
127
82
223
171
196
228
17
40
46
232
199
21
226
233
221
201
193
20
51
133
236
89
208
140
47
59
153
177
175
238
224
99
170
197
266
50
143
186
213
68
19
145
176
258
251
181
63
26
93
267
206
214
227
11
5
180
129
131
125
42
163
115
212
113
172
69
141
216
119
179
205
154
182
75
136
84
103
67
155
207
209
135
261
230
7
94
81
60
225
157
192
111
185
34
222
106
217
203
169
252
114
79
48
15
142
159
210
10
72
161
58
198
101
38
241
234
123
95
112
32
254
231
64
183
86
22
165
118
117
235
164
61
215
70
229
55
137
156
138
204
116
44
147
88
144
242
37
247
132
255
28
190
2
174
149
124
202
74
248
71
62
200
167
148
30
41
102
105
220
162
130
260
18
85
250
168
189
134
262
139
31
268
259
151
237
87
264
23
27
184
121
96
65
4
83
52
126
246
263
122
39
245
120
73
92
14
146
100
80
8
76
56
128
195
16
24
25
53
107
78
257
243
109
9
29
265
35
3
57
108
104
152
173
12
91
249
244
240
45
90
256
160
43
269
6
54

> <PUBCHEM_MMFF94_PARTIAL_CHARGES>
11
1 -0.68
10 -0.28
11 0.14
12 -0.3
2 -0.68
26 0.4
30 0.15
31 0.15
32 0.4
7 0.42
9 0.28

> <PUBCHEM_EFFECTIVE_ROTOR_COUNT>
6

> <PUBCHEM_PHARMACOPHORE_FEATURES>
6
1 1 acceptor
1 1 donor
1 2 acceptor
1 2 donor
1 8 hydrophobe
4 3 4 5 6 hydrophobe

> <PUBCHEM_HEAVY_ATOM_COUNT>
12

> <PUBCHEM_ATOM_DEF_STEREO_COUNT>
0

> <PUBCHEM_ATOM_UDEF_STEREO_COUNT>
2

> <PUBCHEM_BOND_DEF_STEREO_COUNT>
0

> <PUBCHEM_BOND_UDEF_STEREO_COUNT>
0

> <PUBCHEM_ISOTOPIC_ATOM_COUNT>
0

> <PUBCHEM_COMPONENT_COUNT>
1

> <PUBCHEM_CACTVS_TAUTO_COUNT>
1

> <PUBCHEM_CONFORMER_ID>
000162A600000001

> <PUBCHEM_MMFF94_ENERGY>
14.0044

> <PUBCHEM_FEATURE_SELFOVERLAP>
30.641

> <PUBCHEM_SHAPE_FINGERPRINT>
12932764 1 17917707972410663612
13296908 3 18131347475444384745
14252887 29 18340488971209443747
18522851 268 18115596932758698710
19766037 51 18342192067238792735
20279233 1 18342447123940120561
20281407 28 18412831282971648763
20281475 54 18411427193748665379
20645477 70 17346024568107483973
20671657 53 17168137988233281237
20715346 28 18201427043753346928
20871998 22 18411138060829526193
20871999 31 18040436594844195991
21524375 3 10735891547289717325
22096605 113 14057010454632430295
23402539 116 17822007597437145436
23557571 272 18261662684606588708
31174 14 17774999111198926457
3248919 1 16226332503894223120
449060 23 18335141999061171387
581208 293 18201152260335540595
6049 1 18200873985157217624
8030462 33 15936701358624082532
81228 2 18187646856391711145
88987 49 17896871058807200276
94968 8 18343592857774230366

> <PUBCHEM_SHAPE_MULTIPOLES>
235.22
6.7
1.86
1.22
3.54
0.1
-0.05
3.07
-0.25
0.79
-0.41
-1.09
-0.27
0.81

> <PUBCHEM_SHAPE_SELFOVERLAP>
432.331

> <PUBCHEM_SHAPE_VOLUME>
149.9

> <PUBCHEM_COORDINATE_TYPE>
2
5
10

$$$$
