90818
  -OEChem-11232108483D

 37 36  0     0  0  0  0  0  0999 V2000
    7.7037   -1.0712   -0.0551 N   0  0  0  0  0  0  0  0  0  0  0  0
   -1.8213    0.5699    0.0551 C   0  0  0  0  0  0  0  0  0  0  0  0
   -3.0575   -0.3135   -0.1371 C   0  0  0  0  0  0  0  0  0  0  0  0
   -0.5022   -0.1716   -0.1731 C   0  0  0  0  0  0  0  0  0  0  0  0
   -4.3779    0.4342    0.0672 C   0  0  0  0  0  0  0  0  0  0  0  0
    0.6975    0.7591    0.0198 C   0  0  0  0  0  0  0  0  0  0  0  0
   -5.5743   -0.5122   -0.0654 C   0  0  0  0  0  0  0  0  0  0  0  0
    2.0162    0.0277   -0.2394 C   0  0  0  0  0  0  0  0  0  0  0  0
   -6.9216    0.1783    0.1579 C   0  0  0  0  0  0  0  0  0  0  0  0
    3.2134    0.9668   -0.0786 C   0  0  0  0  0  0  0  0  0  0  0  0
   -8.1086   -0.7706    0.0968 C   0  0  0  0  0  0  0  0  0  0  0  0
    4.5049    0.2557   -0.3640 C   0  0  0  0  0  0  0  0  0  0  0  0
    5.5108    0.1636    0.5162 C   0  0  0  0  0  0  0  0  0  0  0  0
    6.7169   -0.5164    0.1998 C   0  0  0  0  0  0  0  0  0  0  0  0
   -1.8324    0.9849    1.0706 H   0  0  0  0  0  0  0  0  0  0  0  0
   -1.8813    1.4208   -0.6350 H   0  0  0  0  0  0  0  0  0  0  0  0
   -3.0394   -0.7433   -1.1464 H   0  0  0  0  0  0  0  0  0  0  0  0
   -3.0038   -1.1543    0.5657 H   0  0  0  0  0  0  0  0  0  0  0  0
   -0.4306   -1.0161    0.5228 H   0  0  0  0  0  0  0  0  0  0  0  0
   -0.4883   -0.5862   -1.1884 H   0  0  0  0  0  0  0  0  0  0  0  0
   -4.4620    1.2429   -0.6683 H   0  0  0  0  0  0  0  0  0  0  0  0
   -4.3867    0.8972    1.0612 H   0  0  0  0  0  0  0  0  0  0  0  0
    0.6927    1.1596    1.0408 H   0  0  0  0  0  0  0  0  0  0  0  0
    0.6121    1.6130   -0.6633 H   0  0  0  0  0  0  0  0  0  0  0  0
   -5.5669   -0.9711   -1.0619 H   0  0  0  0  0  0  0  0  0  0  0  0
   -5.4688   -1.3289    0.6597 H   0  0  0  0  0  0  0  0  0  0  0  0
    2.1101   -0.8162    0.4557 H   0  0  0  0  0  0  0  0  0  0  0  0
    2.0075   -0.3920   -1.2535 H   0  0  0  0  0  0  0  0  0  0  0  0
   -7.0549    0.9647   -0.5945 H   0  0  0  0  0  0  0  0  0  0  0  0
   -6.9181    0.6727    1.1367 H   0  0  0  0  0  0  0  0  0  0  0  0
    3.2162    1.3917    0.9325 H   0  0  0  0  0  0  0  0  0  0  0  0
    3.1205    1.8065   -0.7778 H   0  0  0  0  0  0  0  0  0  0  0  0
   -8.0280   -1.5463    0.8647 H   0  0  0  0  0  0  0  0  0  0  0  0
   -8.1667   -1.2595   -0.8808 H   0  0  0  0  0  0  0  0  0  0  0  0
   -9.0420   -0.2235    0.2611 H   0  0  0  0  0  0  0  0  0  0  0  0
    4.6084   -0.1879   -1.3523 H   0  0  0  0  0  0  0  0  0  0  0  0
    5.4235    0.6081    1.5022 H   0  0  0  0  0  0  0  0  0  0  0  0
  1 14  3  0  0  0  0
  2  3  1  0  0  0  0
  2  4  1  0  0  0  0
  2 15  1  0  0  0  0
  2 16  1  0  0  0  0
  3  5  1  0  0  0  0
  3 17  1  0  0  0  0
  3 18  1  0  0  0  0
  4  6  1  0  0  0  0
  4 19  1  0  0  0  0
  4 20  1  0  0  0  0
  5  7  1  0  0  0  0
  5 21  1  0  0  0  0
  5 22  1  0  0  0  0
  6  8  1  0  0  0  0
  6 23  1  0  0  0  0
  6 24  1  0  0  0  0
  7  9  1  0  0  0  0
  7 25  1  0  0  0  0
  7 26  1  0  0  0  0
  8 10  1  0  0  0  0
  8 27  1  0  0  0  0
  8 28  1  0  0  0  0
  9 11  1  0  0  0  0
  9 29  1  0  0  0  0
  9 30  1  0  0  0  0
 10 12  1  0  0  0  0
 10 31  1  0  0  0  0
 10 32  1  0  0  0  0
 11 33  1  0  0  0  0
 11 34  1  0  0  0  0
 11 35  1  0  0  0  0
 12 13  2  3  0  0  0
 12 36  1  0  0  0  0
 13 14  1  0  0  0  0
 13 37  1  0  0  0  0
M  END
> <PUBCHEM_COMPOUND_CID>
90818

> <PUBCHEM_CONFORMER_RMSD>
0.8

> <PUBCHEM_CONFORMER_DIVERSEORDER>
1
49
82
15
345
248
203
115
17
33
348
225
318
27
186
41
284
202
291
228
69
266
46
159
310
188
216
32
44
237
276
129
249
185
63
16
259
273
105
292
51
346
74
92
161
335
349
124
151
272
220
42
9
114
279
135
255
100
204
262
34
120
43
230
104
172
343
168
210
54
174
209
311
2
116
241
113
66
260
36
319
165
86
305
45
108
320
26
142
76
173
133
53
95
98
37
81
107
217
79
103
146
154
247
265
206
254
96
331
301
5
72
294
30
22
109
97
251
321
40
77
309
269
334
300
257
155
324
11
205
93
162
28
238
160
330
183
208
13
59
23
201
25
351
99
170
18
296
8
14
153
10
138
4
148
283
347
52
240
325
39
213
214
149
178
50
21
235
19
232
91
137
112
71
134
145
200
24
83
187
127
102
12
80
289
244
70
277
61
198
293
87
131
73
177
106
119
270
88
136
308
117
226
85
176
250
268
352
156
62
56
307
29
75
189
58
264
219
298
48
55
84
123
130
67
179
68
290
314
128
193
286
234
191
7
227
271
132
315
342
175
6
215
252
278
64
65
180
38
275
221
302
35
90
192
125
195
295
333
224
150
181
164
306
199
47
20
280
297
245
144
281
78
317
196
3
190
89
288
163
171
285
229
339
350
253
218
122
60
139
111
233
141
101
327
197
312
239
282
182
223
126
158
212
326
207
222
157
31
121
118
147
316
256
242
211
167
140
303
194
57
287
263
236
274
94
267
261
258
328
110
152
184
143
231
341
304
169
332
340
166
336
313
246
337
243
344
338
299
322
323
329

> <PUBCHEM_MMFF94_PARTIAL_CHARGES>
7
1 -0.56
10 0.14
12 -0.29
13 -0.09
14 0.49
36 0.15
37 0.15

> <PUBCHEM_EFFECTIVE_ROTOR_COUNT>
9

> <PUBCHEM_PHARMACOPHORE_FEATURES>
2
1 1 acceptor
1 11 hydrophobe

> <PUBCHEM_HEAVY_ATOM_COUNT>
14

> <PUBCHEM_ATOM_DEF_STEREO_COUNT>
0

> <PUBCHEM_ATOM_UDEF_STEREO_COUNT>
0

> <PUBCHEM_BOND_DEF_STEREO_COUNT>
0

> <PUBCHEM_BOND_UDEF_STEREO_COUNT>
1

> <PUBCHEM_ISOTOPIC_ATOM_COUNT>
0

> <PUBCHEM_COMPONENT_COUNT>
1

> <PUBCHEM_CACTVS_TAUTO_COUNT>
1

> <PUBCHEM_CONFORMER_ID>
000162C200000001

> <PUBCHEM_MMFF94_ENERGY>
-2.2094

> <PUBCHEM_FEATURE_SELFOVERLAP>
10.148

> <PUBCHEM_SHAPE_FINGERPRINT>
10968037 39 8286200548689929777
11315181 36 11386368132856983461
11638347 137 15985109587736877878
12091667 2 17312821577103577381
12714333 28 10231755591713578260
13073987 5 15769508520945168569
13533116 47 15574980759169953344
14123256 10 8430316839844523390
14251764 18 18272373083027721656
14251764 46 18410575088963333963
14729087 3 13686304556768585795
15048467 5 10087640403421379544
155225 1 10087631612504923002
15690457 1 18341890800921186175
15716309 27 18273494593725621877
17834072 8 14923945652181722400
17834076 25 18113617893812836049
18006028 8 18408885139618283869
20621476 38 18334856078909782586
20621476 8 18187363212735629629
20735858 18 17275386503720924374
20767249 213 10159696897894990644
21130983 4 10663819684905961610
21150785 3 13406795523337159018
21267235 1 18333734610797162260
21315763 28 18411138052435030157
220451 1 13912318006294680921
22224240 67 14117795816887035540
23035841 295 18409730677640855379
23402539 116 17917423237501229188
23521765 1 18341895194645940389
246663 6 18041000639318120691
28498 318 18334010570993465551
33532 11 18260264127480850434
33684 2 18410573980861765099
42788 4 18409166618905591092
59682541 35 17203323446569258330
59755656 520 17967528008792805147
8209 1 17822009813344916349

> <PUBCHEM_SHAPE_MULTIPOLES>
283.13
24.76
0.92
0.65
5.47
0.01
0.01
7.77
1.77
-0.39
0
-0.11
-0.01
-0.06

> <PUBCHEM_SHAPE_SELFOVERLAP>
513.688

> <PUBCHEM_SHAPE_VOLUME>
178.9

> <PUBCHEM_COORDINATE_TYPE>
2
5
10

$$$$
