90884
  -OEChem-11232109433D

 28 28  0     1  0  0  0  0  0999 V2000
    0.1550   -1.3640   -0.2828 O   0  0  0  0  0  0  0  0  0  0  0  0
   -0.1505    1.3571    0.2881 O   0  0  0  0  0  0  0  0  0  0  0  0
    1.6726   -0.6728    1.3997 O   0  0  0  0  0  0  0  0  0  0  0  0
   -1.6785    0.6835   -1.3945 O   0  0  0  0  0  0  0  0  0  0  0  0
    1.3066   -0.5647    0.0232 C   0  0  2  0  0  0  0  0  0  0  0  0
   -1.3080    0.5659   -0.0202 C   0  0  1  0  0  0  0  0  0  0  0  0
   -1.0342   -0.8990    0.3721 C   0  0  1  0  0  0  0  0  0  0  0  0
    1.0332    0.8958   -0.3788 C   0  0  2  0  0  0  0  0  0  0  0  0
    2.4598   -1.1646   -0.7799 C   0  0  0  0  0  0  0  0  0  0  0  0
   -2.4565    1.1631    0.7911 C   0  0  0  0  0  0  0  0  0  0  0  0
   -2.1507   -1.8675   -0.0058 C   0  0  0  0  0  0  0  0  0  0  0  0
    2.1511    1.8671   -0.0122 C   0  0  0  0  0  0  0  0  0  0  0  0
   -0.8642   -0.9708    1.4540 H   0  0  0  0  0  0  0  0  0  0  0  0
    0.8544    0.9625   -1.4595 H   0  0  0  0  0  0  0  0  0  0  0  0
    2.5666   -2.2343   -0.5621 H   0  0  0  0  0  0  0  0  0  0  0  0
    2.2792   -1.0797   -1.8570 H   0  0  0  0  0  0  0  0  0  0  0  0
    3.4175   -0.6932   -0.5380 H   0  0  0  0  0  0  0  0  0  0  0  0
   -3.4160    0.6945    0.5505 H   0  0  0  0  0  0  0  0  0  0  0  0
   -2.2717    1.0718    1.8669 H   0  0  0  0  0  0  0  0  0  0  0  0
   -2.5623    2.2342    0.5798 H   0  0  0  0  0  0  0  0  0  0  0  0
   -3.0897   -1.6234    0.4981 H   0  0  0  0  0  0  0  0  0  0  0  0
   -2.3209   -1.8756   -1.0877 H   0  0  0  0  0  0  0  0  0  0  0  0
   -1.8714   -2.8905    0.2701 H   0  0  0  0  0  0  0  0  0  0  0  0
    2.3308    1.8780    1.0682 H   0  0  0  0  0  0  0  0  0  0  0  0
    3.0860    1.6239   -0.5239 H   0  0  0  0  0  0  0  0  0  0  0  0
    1.8672    2.8891   -0.2878 H   0  0  0  0  0  0  0  0  0  0  0  0
    2.1704   -1.4976    1.5266 H   0  0  0  0  0  0  0  0  0  0  0  0
   -2.1730    1.5112   -1.5149 H   0  0  0  0  0  0  0  0  0  0  0  0
  1  5  1  0  0  0  0
  1  7  1  0  0  0  0
  2  6  1  0  0  0  0
  2  8  1  0  0  0  0
  3  5  1  0  0  0  0
  3 27  1  0  0  0  0
  4  6  1  0  0  0  0
  4 28  1  0  0  0  0
  5  8  1  0  0  0  0
  5  9  1  0  0  0  0
  6  7  1  0  0  0  0
  6 10  1  0  0  0  0
  7 11  1  0  0  0  0
  7 13  1  0  0  0  0
  8 12  1  0  0  0  0
  8 14  1  0  0  0  0
  9 15  1  0  0  0  0
  9 16  1  0  0  0  0
  9 17  1  0  0  0  0
 10 18  1  0  0  0  0
 10 19  1  0  0  0  0
 10 20  1  0  0  0  0
 11 21  1  0  0  0  0
 11 22  1  0  0  0  0
 11 23  1  0  0  0  0
 12 24  1  0  0  0  0
 12 25  1  0  0  0  0
 12 26  1  0  0  0  0
M  END
> <PUBCHEM_COMPOUND_CID>
90884

> <PUBCHEM_CONFORMER_RMSD>
0.4

> <PUBCHEM_CONFORMER_DIVERSEORDER>
1
25
13
3
14
21
11
6
22
24
20
23
16
4
8
18
12
19
17
7
5
2
15
9
10

> <PUBCHEM_MMFF94_PARTIAL_CHARGES>
10
1 -0.56
2 -0.56
27 0.4
28 0.4
3 -0.68
4 -0.68
5 0.56
6 0.56
7 0.28
8 0.28

> <PUBCHEM_EFFECTIVE_ROTOR_COUNT>
1.2

> <PUBCHEM_PHARMACOPHORE_FEATURES>
7
1 1 acceptor
1 2 acceptor
1 3 acceptor
1 3 donor
1 4 acceptor
1 4 donor
6 1 2 5 6 7 8 rings

> <PUBCHEM_HEAVY_ATOM_COUNT>
12

> <PUBCHEM_ATOM_DEF_STEREO_COUNT>
0

> <PUBCHEM_ATOM_UDEF_STEREO_COUNT>
4

> <PUBCHEM_BOND_DEF_STEREO_COUNT>
0

> <PUBCHEM_BOND_UDEF_STEREO_COUNT>
0

> <PUBCHEM_ISOTOPIC_ATOM_COUNT>
0

> <PUBCHEM_COMPONENT_COUNT>
1

> <PUBCHEM_CACTVS_TAUTO_COUNT>
1

> <PUBCHEM_CONFORMER_ID>
0001630400000001

> <PUBCHEM_MMFF94_ENERGY>
28.7425

> <PUBCHEM_FEATURE_SELFOVERLAP>
35.602

> <PUBCHEM_SHAPE_FINGERPRINT>
12423570 1 12704417333531797542
12524768 44 18409450267103929700
12932764 1 17822011977807953924
13380535 21 18267042676431277108
13380535 239 18264488553853607663
14648413 74 18341625801623242984
15557651 10 17678472865211149085
161256 15 18265062507523933486
16945 1 18265046938246184966
193761 8 18340495554993192966
19973954 147 18341336664229677938
20653091 64 18261387888403724130
207724 885 18195541289448439538
21040471 1 18195528090934752635
21501502 16 18339369655123319118
21922407 69 15697703883222237830
23235685 24 18196376922369428929
23552423 10 18261961841884113454
241688 4 17259911719299733578
24536 1 18272080600033688714
2748010 2 18410859896829378735
5084963 1 17970909088261723980
528886 8 18269847414829933838
68250623 7 18268447856665546582

> <PUBCHEM_SHAPE_MULTIPOLES>
223.48
3.44
1.98
0.98
0
0
0
0
0
0
0
0
0
-0.01

> <PUBCHEM_SHAPE_SELFOVERLAP>
443.589

> <PUBCHEM_SHAPE_VOLUME>
133.3

> <PUBCHEM_COORDINATE_TYPE>
2
5
10

$$$$
