90942
  -OEChem-11232108453D

 47 47  0     1  0  0  0  0  0999 V2000
    3.7618   -1.8376   -0.0929 O   0  0  0  0  0  0  0  0  0  0  0  0
    1.1610   -1.2571    1.4810 O   0  0  0  0  0  0  0  0  0  0  0  0
   -6.7812    0.6442   -0.7357 O   0  0  0  0  0  0  0  0  0  0  0  0
   -5.3208    2.3558    0.8967 O   0  0  0  0  0  0  0  0  0  0  0  0
    4.5714    0.4076   -0.4535 C   0  0  0  0  0  0  0  0  0  0  0  0
    3.4565   -0.4641    0.1378 C   0  0  1  0  0  0  0  0  0  0  0  0
    5.9511    0.0326    0.1004 C   0  0  0  0  0  0  0  0  0  0  0  0
    2.0744   -0.1372   -0.4332 C   0  0  0  0  0  0  0  0  0  0  0  0
    7.0906    0.8631   -0.4988 C   0  0  0  0  0  0  0  0  0  0  0  0
    0.9360   -0.6438    0.4379 C   0  0  0  0  0  0  0  0  0  0  0  0
    8.4758    0.4499   -0.0010 C   0  0  0  0  0  0  0  0  0  0  0  0
   -0.4754   -0.3122   -0.0248 C   0  0  0  0  0  0  0  0  0  0  0  0
   -1.5651   -0.7872    0.9383 C   0  0  0  0  0  0  0  0  0  0  0  0
   -2.9561   -0.4024    0.4940 C   0  0  0  0  0  0  0  0  0  0  0  0
    9.5715    1.2574   -0.6802 C   0  0  0  0  0  0  0  0  0  0  0  0
   -3.5080    0.8117    0.9024 C   0  0  0  0  0  0  0  0  0  0  0  0
   -3.6889   -1.2612   -0.3251 C   0  0  0  0  0  0  0  0  0  0  0  0
   -4.7927    1.1673    0.4915 C   0  0  0  0  0  0  0  0  0  0  0  0
   -4.9737   -0.9059   -0.7357 C   0  0  0  0  0  0  0  0  0  0  0  0
   -5.5257    0.3084   -0.3275 C   0  0  0  0  0  0  0  0  0  0  0  0
   -7.4624   -0.2894   -1.5714 C   0  0  0  0  0  0  0  0  0  0  0  0
    4.3656    1.4648   -0.2489 H   0  0  0  0  0  0  0  0  0  0  0  0
    4.5896    0.2818   -1.5435 H   0  0  0  0  0  0  0  0  0  0  0  0
    3.4564   -0.3191    1.2245 H   0  0  0  0  0  0  0  0  0  0  0  0
    5.9507    0.1567    1.1903 H   0  0  0  0  0  0  0  0  0  0  0  0
    6.1546   -1.0265   -0.0982 H   0  0  0  0  0  0  0  0  0  0  0  0
    1.9536   -0.5813   -1.4275 H   0  0  0  0  0  0  0  0  0  0  0  0
    1.9528    0.9493   -0.5089 H   0  0  0  0  0  0  0  0  0  0  0  0
    6.9223    1.9225   -0.2687 H   0  0  0  0  0  0  0  0  0  0  0  0
    7.0599    0.7691   -1.5916 H   0  0  0  0  0  0  0  0  0  0  0  0
    8.6396   -0.6155   -0.1997 H   0  0  0  0  0  0  0  0  0  0  0  0
    8.5373    0.5918    1.0840 H   0  0  0  0  0  0  0  0  0  0  0  0
   -0.5367    0.7758   -0.1458 H   0  0  0  0  0  0  0  0  0  0  0  0
   -0.6201   -0.7703   -1.0101 H   0  0  0  0  0  0  0  0  0  0  0  0
   -1.5087   -1.8774    1.0567 H   0  0  0  0  0  0  0  0  0  0  0  0
   -1.3810   -0.3804    1.9415 H   0  0  0  0  0  0  0  0  0  0  0  0
    3.7985   -1.9770   -1.0546 H   0  0  0  0  0  0  0  0  0  0  0  0
    9.4521    2.3269   -0.4795 H   0  0  0  0  0  0  0  0  0  0  0  0
   10.5540    0.9495   -0.3090 H   0  0  0  0  0  0  0  0  0  0  0  0
    9.5557    1.1069   -1.7644 H   0  0  0  0  0  0  0  0  0  0  0  0
   -2.9343    1.4808    1.5394 H   0  0  0  0  0  0  0  0  0  0  0  0
   -3.2676   -2.2088   -0.6507 H   0  0  0  0  0  0  0  0  0  0  0  0
   -5.4836   -1.6216   -1.3713 H   0  0  0  0  0  0  0  0  0  0  0  0
   -4.6725    2.8165    1.4566 H   0  0  0  0  0  0  0  0  0  0  0  0
   -8.4442    0.1387   -1.7991 H   0  0  0  0  0  0  0  0  0  0  0  0
   -7.6418   -1.2382   -1.0542 H   0  0  0  0  0  0  0  0  0  0  0  0
   -6.9462   -0.4266   -2.5277 H   0  0  0  0  0  0  0  0  0  0  0  0
  1  6  1  0  0  0  0
  1 37  1  0  0  0  0
  2 10  2  0  0  0  0
  3 20  1  0  0  0  0
  3 21  1  0  0  0  0
  4 18  1  0  0  0  0
  4 44  1  0  0  0  0
  5  6  1  0  0  0  0
  5  7  1  0  0  0  0
  5 22  1  0  0  0  0
  5 23  1  0  0  0  0
  6  8  1  0  0  0  0
  6 24  1  0  0  0  0
  7  9  1  0  0  0  0
  7 25  1  0  0  0  0
  7 26  1  0  0  0  0
  8 10  1  0  0  0  0
  8 27  1  0  0  0  0
  8 28  1  0  0  0  0
  9 11  1  0  0  0  0
  9 29  1  0  0  0  0
  9 30  1  0  0  0  0
 10 12  1  0  0  0  0
 11 15  1  0  0  0  0
 11 31  1  0  0  0  0
 11 32  1  0  0  0  0
 12 13  1  0  0  0  0
 12 33  1  0  0  0  0
 12 34  1  0  0  0  0
 13 14  1  0  0  0  0
 13 35  1  0  0  0  0
 13 36  1  0  0  0  0
 14 16  2  0  0  0  0
 14 17  1  0  0  0  0
 15 38  1  0  0  0  0
 15 39  1  0  0  0  0
 15 40  1  0  0  0  0
 16 18  1  0  0  0  0
 16 41  1  0  0  0  0
 17 19  2  0  0  0  0
 17 42  1  0  0  0  0
 18 20  2  0  0  0  0
 19 20  1  0  0  0  0
 19 43  1  0  0  0  0
 21 45  1  0  0  0  0
 21 46  1  0  0  0  0
 21 47  1  0  0  0  0
M  END
> <PUBCHEM_COMPOUND_CID>
90942

> <PUBCHEM_CONFORMER_RMSD>
1

> <PUBCHEM_CONFORMER_DIVERSEORDER>
1
64
28
29
344
368
98
387
294
99
238
231
10
145
305
262
100
241
66
8
403
121
60
134
67
307
206
311
34
20
18
205
86
109
81
25
143
309
12
236
195
118
129
193
386
372
160
366
265
82
46
280
96
342
315
362
190
37
89
32
226
9
74
229
359
114
124
2
348
256
411
166
398
43
107
6
361
148
203
70
350
15
299
123
19
358
282
69
335
306
293
35
414
163
225
11
174
104
415
22
227
85
328
110
176
300
324
92
183
146
16
202
410
212
187
264
377
169
393
367
320
228
57
93
365
198
113
4
338
30
257
162
171
108
288
164
54
382
286
245
395
258
244
144
412
208
125
132
269
44
330
119
155
158
58
153
255
3
397
131
380
312
84
48
240
303
140
401
297
298
399
390
277
204
209
101
21
234
51
396
133
41
7
407
383
165
106
83
175
327
97
313
222
413
79
357
52
349
316
322
80
73
40
323
47
211
94
207
68
154
180
261
291
279
50
259
304
406
78
59
346
130
126
128
36
23
250
152
408
278
274
33
137
127
373
285
233
63
192
345
62
120
90
336
224
272
219
292
138
61
199
237
337
418
283
116
38
53
329
191
184
186
170
249
314
284
142
181
31
404
260
354
214
56
157
77
24
370
388
139
239
281
42
91
13
112
72
332
384
321
371
343
270
65
182
273
351
167
266
213
394
221
247
400
341
385
217
253
326
196
39
287
339
150
27
223
375
88
252
141
271
356
5
325
232
185
26
178
308
87
378
115
319
189
296
275
161
416
230
318
379
200
310
363
210
347
246
301
151
177
243
159
117
75
14
147
179
355
251
172
417
105
295
17
374
333
254
168
391
331
218
45
49
289
364
135
405
103
334
156
55
268
95
149
102
290
340
352
392
201
376
402
122
409
136
76
215
360
111
216
248
197
267
276
317
302
173
263
188
389
369
242
381
220
71
194
235
353

> <PUBCHEM_MMFF94_PARTIAL_CHARGES>
21
1 -0.68
10 0.45
12 0.06
13 0.14
14 -0.14
16 -0.15
17 -0.15
18 0.08
19 -0.15
2 -0.57
20 0.08
21 0.28
3 -0.36
37 0.4
4 -0.53
41 0.15
42 0.15
43 0.15
44 0.45
6 0.28
8 0.06

> <PUBCHEM_EFFECTIVE_ROTOR_COUNT>
10

> <PUBCHEM_PHARMACOPHORE_FEATURES>
8
1 1 acceptor
1 1 donor
1 15 hydrophobe
1 2 acceptor
1 3 acceptor
1 4 donor
4 5 7 9 11 hydrophobe
6 14 16 17 18 19 20 rings

> <PUBCHEM_HEAVY_ATOM_COUNT>
21

> <PUBCHEM_ATOM_DEF_STEREO_COUNT>
0

> <PUBCHEM_ATOM_UDEF_STEREO_COUNT>
1

> <PUBCHEM_BOND_DEF_STEREO_COUNT>
0

> <PUBCHEM_BOND_UDEF_STEREO_COUNT>
0

> <PUBCHEM_ISOTOPIC_ATOM_COUNT>
0

> <PUBCHEM_COMPONENT_COUNT>
1

> <PUBCHEM_CACTVS_TAUTO_COUNT>
37

> <PUBCHEM_CONFORMER_ID>
0001633E00000001

> <PUBCHEM_MMFF94_ENERGY>
41.1083

> <PUBCHEM_FEATURE_SELFOVERLAP>
40.597

> <PUBCHEM_SHAPE_FINGERPRINT>
10 15 15285359531210874924
10066227 49 16343155619668883382
10087517 78 18334859385444146660
10299344 5 9799691506936978216
10595046 47 18200876175511235403
10670039 82 18342173349972303433
10968037 39 18201718458043763015
11089746 13 18408605885693241280
11315181 36 18408605877087307123
12091667 2 18341898514666463258
12616971 3 14562823182874277418
13288520 33 10303813168450395915
13668630 136 14979953688026809127
13673619 4 11383834857713796394
13685833 64 11455891365029539230
13968360 50 17418099793872684598
14123256 10 17917993888488988214
14251764 18 18409165502751846136
14251764 46 15285355133217228103
14729087 3 17603301553085688164
15183329 4 18343863303322008090
15348495 7 14057015956802255516
15461852 350 17846498161888113596
155225 1 17822005394546606669
15716309 27 10015862089384045130
1577012 14 18341613664219790097
17093844 174 16008749121877404953
17780758 139 11169910589668257159
1818759 1 11023832790881109636
18335252 98 18408610284067365475
18643901 69 16415471697739248069
18681886 176 17846771940341458459
2026 5 11455075493786842812
21150785 3 17704353277264053324
21267235 1 12607405503084454202
22224240 67 16225765233483186010
2297311 6 17060616699272312377
23035841 295 9511460026503969640
23522609 53 10375031959892864162
23559900 14 17917418870147022427
246663 6 12247682686371959636
300161 21 18187082849485801978
33532 11 10087653581252034076
34797466 226 17131836498881503569
4073 2 18261398853619638338
4325135 7 18413106169463447764
543368 44 18334013878767025987
5758199 1 18113901563792200378
5969126 39 13830140460047994290
636775 8 15769494321888809717
9953998 17 12324241676407902725

> <PUBCHEM_SHAPE_MULTIPOLES>
408.69
26.91
1.43
1.06
41.18
0.28
-0.02
10.74
-9.02
-0.88
0.26
-1.24
-0.03
-1.39

> <PUBCHEM_SHAPE_SELFOVERLAP>
811.562

> <PUBCHEM_SHAPE_VOLUME>
242.8

> <PUBCHEM_COORDINATE_TYPE>
2
5
10

$$$$
