90984
  -OEChem-11232108413D

 29 30  0     1  0  0  0  0  0999 V2000
   -2.6769    0.5320   -0.9226 S   0  0  0  0  0  0  0  0  0  0  0  0
    1.3008   -0.3307   -0.0710 C   0  0  0  0  0  0  0  0  0  0  0  0
   -0.0013   -0.1598   -0.9290 C   0  0  2  0  0  0  0  0  0  0  0  0
    1.0367    1.1499    0.3530 C   0  0  1  0  0  0  0  0  0  0  0  0
    0.4904    1.3199   -1.0891 C   0  0  0  0  0  0  0  0  0  0  0  0
   -1.2934   -0.3505   -0.1052 C   0  0  1  0  0  0  0  0  0  0  0  0
   -0.0716    1.3479    1.3937 C   0  0  0  0  0  0  0  0  0  0  0  0
   -1.0794    0.1913    1.3281 C   0  0  0  0  0  0  0  0  0  0  0  0
    2.5531   -0.5038   -0.9279 C   0  0  0  0  0  0  0  0  0  0  0  0
    1.4038   -1.3576    1.0333 C   0  0  0  0  0  0  0  0  0  0  0  0
   -1.6622   -1.8388   -0.0633 C   0  0  0  0  0  0  0  0  0  0  0  0
   -0.0135   -0.7142   -1.8758 H   0  0  0  0  0  0  0  0  0  0  0  0
    1.9218    1.7571    0.5700 H   0  0  0  0  0  0  0  0  0  0  0  0
   -0.2774    2.0911   -1.2091 H   0  0  0  0  0  0  0  0  0  0  0  0
    1.2248    1.5209   -1.8746 H   0  0  0  0  0  0  0  0  0  0  0  0
   -0.5750    2.3080    1.2296 H   0  0  0  0  0  0  0  0  0  0  0  0
    0.3603    1.3869    2.4003 H   0  0  0  0  0  0  0  0  0  0  0  0
   -0.8528   -0.6013    2.0423 H   0  0  0  0  0  0  0  0  0  0  0  0
   -2.0303    0.5639    1.7375 H   0  0  0  0  0  0  0  0  0  0  0  0
    2.5864    0.0929   -1.8420 H   0  0  0  0  0  0  0  0  0  0  0  0
    3.4549   -0.2523   -0.3567 H   0  0  0  0  0  0  0  0  0  0  0  0
    2.6513   -1.5469   -1.2541 H   0  0  0  0  0  0  0  0  0  0  0  0
    1.1591   -2.3610    0.6729 H   0  0  0  0  0  0  0  0  0  0  0  0
    2.4455   -1.4252    1.3799 H   0  0  0  0  0  0  0  0  0  0  0  0
    0.8749   -1.1643    1.9580 H   0  0  0  0  0  0  0  0  0  0  0  0
   -1.7604   -2.2574   -1.0724 H   0  0  0  0  0  0  0  0  0  0  0  0
   -0.9209   -2.4483    0.4547 H   0  0  0  0  0  0  0  0  0  0  0  0
   -2.6111   -2.0004    0.4628 H   0  0  0  0  0  0  0  0  0  0  0  0
   -3.6279    0.1946   -0.0390 H   0  0  0  0  0  0  0  0  0  0  0  0
  1  6  1  0  0  0  0
  1 29  1  0  0  0  0
  2  3  1  0  0  0  0
  2  4  1  0  0  0  0
  2  9  1  0  0  0  0
  2 10  1  0  0  0  0
  3  5  1  0  0  0  0
  3  6  1  0  0  0  0
  3 12  1  0  0  0  0
  4  5  1  0  0  0  0
  4  7  1  0  0  0  0
  4 13  1  0  0  0  0
  5 14  1  0  0  0  0
  5 15  1  0  0  0  0
  6  8  1  0  0  0  0
  6 11  1  0  0  0  0
  7  8  1  0  0  0  0
  7 16  1  0  0  0  0
  7 17  1  0  0  0  0
  8 18  1  0  0  0  0
  8 19  1  0  0  0  0
  9 20  1  0  0  0  0
  9 21  1  0  0  0  0
  9 22  1  0  0  0  0
 10 23  1  0  0  0  0
 10 24  1  0  0  0  0
 10 25  1  0  0  0  0
 11 26  1  0  0  0  0
 11 27  1  0  0  0  0
 11 28  1  0  0  0  0
M  END
> <PUBCHEM_COMPOUND_CID>
90984

> <PUBCHEM_CONFORMER_RMSD>
0.4

> <PUBCHEM_CONFORMER_DIVERSEORDER>
1
4
3
2

> <PUBCHEM_MMFF94_PARTIAL_CHARGES>
3
1 -0.41
29 0.18
6 0.23

> <PUBCHEM_EFFECTIVE_ROTOR_COUNT>
1

> <PUBCHEM_PHARMACOPHORE_FEATURES>
2
3 2 9 10 hydrophobe
7 2 3 4 5 6 7 8 rings

> <PUBCHEM_HEAVY_ATOM_COUNT>
11

> <PUBCHEM_ATOM_DEF_STEREO_COUNT>
0

> <PUBCHEM_ATOM_UDEF_STEREO_COUNT>
3

> <PUBCHEM_BOND_DEF_STEREO_COUNT>
0

> <PUBCHEM_BOND_UDEF_STEREO_COUNT>
0

> <PUBCHEM_ISOTOPIC_ATOM_COUNT>
0

> <PUBCHEM_COMPONENT_COUNT>
1

> <PUBCHEM_CACTVS_TAUTO_COUNT>
1

> <PUBCHEM_CONFORMER_ID>
0001636800000001

> <PUBCHEM_MMFF94_ENERGY>
54.0235

> <PUBCHEM_FEATURE_SELFOVERLAP>
10.148

> <PUBCHEM_SHAPE_FINGERPRINT>
10702982 57 17481166504339446000
12423570 1 10330649699946879541
13024252 1 15648209324632850598
137420 1 14008851162488827953
14128692 85 18266189502805737790
15557651 10 11603118110254835198
16945 1 18409161078381766561
18185500 45 18336837419810194866
20653091 64 18269836574179413667
21930827 45 15213596644416739541
29004967 10 17531263741762018992
369184 2 12613334108514989558
5084963 1 18121229941165050167
528886 8 17458346333752083726
54276843 12 17904525936174286826

> <PUBCHEM_SHAPE_MULTIPOLES>
230.22
2.91
1.61
1.41
0.51
0.26
0.26
0.51
-0.93
0.1
0.18
-0.03
-0.29
-0.01

> <PUBCHEM_SHAPE_SELFOVERLAP>
467.275

> <PUBCHEM_SHAPE_VOLUME>
136.6

> <PUBCHEM_COORDINATE_TYPE>
2
5
10

$$$$
