91098
  -OEChem-11232108553D

 32 32  0     1  0  0  0  0  0999 V2000
   -2.6721   -0.8546   -0.1083 O   0  0  0  0  0  0  0  0  0  0  0  0
   -2.1436    1.7866   -1.1261 O   0  0  0  0  0  0  0  0  0  0  0  0
    0.9076   -0.3070    1.0001 C   0  0  2  0  0  0  0  0  0  0  0  0
   -0.4866   -0.9382    0.8960 C   0  0  0  0  0  0  0  0  0  0  0  0
    0.8003    1.2173    1.1543 C   0  0  0  0  0  0  0  0  0  0  0  0
   -1.3602   -0.2964   -0.1837 C   0  0  2  0  0  0  0  0  0  0  0  0
   -1.4427    1.2233   -0.0183 C   0  0  1  0  0  0  0  0  0  0  0  0
   -0.0595    1.8658    0.0733 C   0  0  0  0  0  0  0  0  0  0  0  0
    1.7940   -0.6967   -0.1854 C   0  0  0  0  0  0  0  0  0  0  0  0
    3.2193   -0.1883    0.0003 C   0  0  0  0  0  0  0  0  0  0  0  0
    4.0931   -0.5527   -1.1893 C   0  0  0  0  0  0  0  0  0  0  0  0
   -2.6494   -2.2592   -0.3128 C   0  0  0  0  0  0  0  0  0  0  0  0
    1.3782   -0.7029    1.9104 H   0  0  0  0  0  0  0  0  0  0  0  0
   -0.3616   -2.0136    0.7271 H   0  0  0  0  0  0  0  0  0  0  0  0
   -0.9951   -0.8502    1.8661 H   0  0  0  0  0  0  0  0  0  0  0  0
    1.7725    1.7121    1.2099 H   0  0  0  0  0  0  0  0  0  0  0  0
    0.3259    1.4218    2.1246 H   0  0  0  0  0  0  0  0  0  0  0  0
   -0.9627   -0.5154   -1.1834 H   0  0  0  0  0  0  0  0  0  0  0  0
   -2.0283    1.4600    0.8787 H   0  0  0  0  0  0  0  0  0  0  0  0
   -0.1692    2.9371    0.2832 H   0  0  0  0  0  0  0  0  0  0  0  0
    0.4438    1.8126   -0.9000 H   0  0  0  0  0  0  0  0  0  0  0  0
    1.3870   -0.3130   -1.1275 H   0  0  0  0  0  0  0  0  0  0  0  0
    1.8158   -1.7900   -0.2788 H   0  0  0  0  0  0  0  0  0  0  0  0
    3.6549   -0.6102    0.9133 H   0  0  0  0  0  0  0  0  0  0  0  0
    3.2539    0.9000    0.0922 H   0  0  0  0  0  0  0  0  0  0  0  0
   -2.1922    2.7475   -0.9843 H   0  0  0  0  0  0  0  0  0  0  0  0
    4.1406   -1.6382   -1.3232 H   0  0  0  0  0  0  0  0  0  0  0  0
    3.7061   -0.1089   -2.1123 H   0  0  0  0  0  0  0  0  0  0  0  0
    5.1130   -0.1853   -1.0379 H   0  0  0  0  0  0  0  0  0  0  0  0
   -1.9867   -2.5471   -1.1354 H   0  0  0  0  0  0  0  0  0  0  0  0
   -3.6647   -2.5714   -0.5763 H   0  0  0  0  0  0  0  0  0  0  0  0
   -2.3838   -2.7848    0.6088 H   0  0  0  0  0  0  0  0  0  0  0  0
  1  6  1  0  0  0  0
  1 12  1  0  0  0  0
  2  7  1  0  0  0  0
  2 26  1  0  0  0  0
  3  4  1  0  0  0  0
  3  5  1  0  0  0  0
  3  9  1  0  0  0  0
  3 13  1  0  0  0  0
  4  6  1  0  0  0  0
  4 14  1  0  0  0  0
  4 15  1  0  0  0  0
  5  8  1  0  0  0  0
  5 16  1  0  0  0  0
  5 17  1  0  0  0  0
  6  7  1  0  0  0  0
  6 18  1  0  0  0  0
  7  8  1  0  0  0  0
  7 19  1  0  0  0  0
  8 20  1  0  0  0  0
  8 21  1  0  0  0  0
  9 10  1  0  0  0  0
  9 22  1  0  0  0  0
  9 23  1  0  0  0  0
 10 11  1  0  0  0  0
 10 24  1  0  0  0  0
 10 25  1  0  0  0  0
 11 27  1  0  0  0  0
 11 28  1  0  0  0  0
 11 29  1  0  0  0  0
 12 30  1  0  0  0  0
 12 31  1  0  0  0  0
 12 32  1  0  0  0  0
M  END
> <PUBCHEM_COMPOUND_CID>
91098

> <PUBCHEM_CONFORMER_RMSD>
0.6

> <PUBCHEM_CONFORMER_DIVERSEORDER>
1
25
22
63
81
51
46
38
70
18
20
24
78
82
90
36
86
91
69
85
62
76
68
50
21
61
19
4
14
80
33
15
45
28
48
74
3
29
37
65
79
71
52
2
54
88
10
89
42
59
11
55
13
49
87
73
40
26
32
60
34
9
77
53
43
72
7
30
64
12
23
47
39
66
8
31
57
67
17
27
16
41
75
83
84
6
58
5
56
35
44

> <PUBCHEM_MMFF94_PARTIAL_CHARGES>
6
1 -0.56
12 0.28
2 -0.68
26 0.4
6 0.28
7 0.28

> <PUBCHEM_EFFECTIVE_ROTOR_COUNT>
4.2

> <PUBCHEM_PHARMACOPHORE_FEATURES>
5
1 1 acceptor
1 11 hydrophobe
1 2 acceptor
1 2 donor
6 3 4 5 6 7 8 rings

> <PUBCHEM_HEAVY_ATOM_COUNT>
12

> <PUBCHEM_ATOM_DEF_STEREO_COUNT>
0

> <PUBCHEM_ATOM_UDEF_STEREO_COUNT>
3

> <PUBCHEM_BOND_DEF_STEREO_COUNT>
0

> <PUBCHEM_BOND_UDEF_STEREO_COUNT>
0

> <PUBCHEM_ISOTOPIC_ATOM_COUNT>
0

> <PUBCHEM_COMPONENT_COUNT>
1

> <PUBCHEM_CACTVS_TAUTO_COUNT>
1

> <PUBCHEM_CONFORMER_ID>
000163DA00000001

> <PUBCHEM_MMFF94_ENERGY>
23.4753

> <PUBCHEM_FEATURE_SELFOVERLAP>
25.374

> <PUBCHEM_SHAPE_FINGERPRINT>
10353120 184 18115296890833532747
11127187 94 18342745065810875382
11206711 2 18261384559619440295
12138202 78 18050846916310986113
12138202 97 18265610987779897191
12716758 59 18268143154658621602
12897270 3 18270680862118984908
12932764 1 18336270055010006722
13024252 1 17168728365341459016
13571099 52 11242237572096428690
14120999 15 17386004021989742189
14128692 85 18340210802988129472
15775835 57 17386857110269849716
161256 15 18195516211044792441
16945 1 18269264664950859608
18534176 82 18270963431953647204
20645476 183 17898565367644470951
20645477 70 17689700275455327943
20653085 51 17169285753728865732
20711985 344 18261942003778164025
20871998 22 18196647617236852051
20871999 31 18409729551847675791
21040471 1 17903329556049536169
21061003 4 17346606282904935394
22213442 358 18270680986404004670
22802520 49 18129660786237422758
228727 97 17894631461100792818
23211744 25 18113330920808527544
23402539 116 18259699017295691246
23500284 214 11169903974828128831
23557571 272 18341887515793230040
23559900 14 18270954623888605970
241688 4 18336258041828380217
27216 239 11026380410360984646
2748010 2 18268126812197556833
528716 315 18410862031749897740
53812654 72 17774737431984972139

> <PUBCHEM_SHAPE_MULTIPOLES>
235.22
5.08
2.02
1.09
4.14
0.18
0.03
-2.38
-2.16
-1.7
-0.24
0.3
0.14
0.54

> <PUBCHEM_SHAPE_SELFOVERLAP>
452.396

> <PUBCHEM_SHAPE_VOLUME>
143.2

> <PUBCHEM_COORDINATE_TYPE>
2
5
10

$$$$
