91195
  -OEChem-11232109043D

 25 26  0     1  0  0  0  0  0999 V2000
   -0.7903   -2.1079   -0.1902 O   0  0  0  0  0  0  0  0  0  0  0  0
   -0.4181    0.2546   -0.4030 C   0  0  2  0  0  0  0  0  0  0  0  0
    0.8521    1.0725   -0.2062 C   0  0  2  0  0  0  0  0  0  0  0  0
    0.1870    1.0114   -1.5513 C   0  0  0  0  0  0  0  0  0  0  0  0
   -1.6889    0.7939    0.1661 C   0  0  0  0  0  0  0  0  0  0  0  0
    1.8481    0.0612    0.1923 C   0  0  0  0  0  0  0  0  0  0  0  0
   -0.0369   -1.1536   -0.1151 C   0  0  0  0  0  0  0  0  0  0  0  0
    1.3922   -1.2012    0.2699 C   0  0  0  0  0  0  0  0  0  0  0  0
   -2.9169    0.0191   -0.3445 C   0  0  0  0  0  0  0  0  0  0  0  0
   -1.6788    0.7734    1.7053 C   0  0  0  0  0  0  0  0  0  0  0  0
    3.2504    0.4767    0.4769 C   0  0  0  0  0  0  0  0  0  0  0  0
    0.8112    1.9911    0.3633 H   0  0  0  0  0  0  0  0  0  0  0  0
   -0.3019    1.9111   -1.9081 H   0  0  0  0  0  0  0  0  0  0  0  0
    0.6665    0.4489   -2.3452 H   0  0  0  0  0  0  0  0  0  0  0  0
   -1.8190    1.8406   -0.1401 H   0  0  0  0  0  0  0  0  0  0  0  0
    1.9300   -2.0947    0.5356 H   0  0  0  0  0  0  0  0  0  0  0  0
   -2.8979   -0.0654   -1.4362 H   0  0  0  0  0  0  0  0  0  0  0  0
   -2.9772   -0.9891    0.0756 H   0  0  0  0  0  0  0  0  0  0  0  0
   -3.8374    0.5427   -0.0631 H   0  0  0  0  0  0  0  0  0  0  0  0
   -0.8445    1.3602    2.1028 H   0  0  0  0  0  0  0  0  0  0  0  0
   -1.5838   -0.2460    2.0943 H   0  0  0  0  0  0  0  0  0  0  0  0
   -2.6061    1.2005    2.1018 H   0  0  0  0  0  0  0  0  0  0  0  0
    3.2751    1.1946    1.3029 H   0  0  0  0  0  0  0  0  0  0  0  0
    3.6939    0.9490   -0.4054 H   0  0  0  0  0  0  0  0  0  0  0  0
    3.8782   -0.3768    0.7534 H   0  0  0  0  0  0  0  0  0  0  0  0
  1  7  2  0  0  0  0
  2  3  1  0  0  0  0
  2  4  1  0  0  0  0
  2  5  1  0  0  0  0
  2  7  1  0  0  0  0
  3  4  1  0  0  0  0
  3  6  1  0  0  0  0
  3 12  1  0  0  0  0
  4 13  1  0  0  0  0
  4 14  1  0  0  0  0
  5  9  1  0  0  0  0
  5 10  1  0  0  0  0
  5 15  1  0  0  0  0
  6  8  2  0  0  0  0
  6 11  1  0  0  0  0
  7  8  1  0  0  0  0
  8 16  1  0  0  0  0
  9 17  1  0  0  0  0
  9 18  1  0  0  0  0
  9 19  1  0  0  0  0
 10 20  1  0  0  0  0
 10 21  1  0  0  0  0
 10 22  1  0  0  0  0
 11 23  1  0  0  0  0
 11 24  1  0  0  0  0
 11 25  1  0  0  0  0
M  END
> <PUBCHEM_COMPOUND_CID>
91195

> <PUBCHEM_CONFORMER_RMSD>
0.4

> <PUBCHEM_CONFORMER_DIVERSEORDER>
2
3
4
1

> <PUBCHEM_MMFF94_PARTIAL_CHARGES>
13
1 -0.57
11 0.14
12 0.1
13 0.1
14 0.1
16 0.15
2 -0.09
3 -0.06
4 -0.2
5 0.09
6 -0.18
7 0.56
8 -0.14

> <PUBCHEM_EFFECTIVE_ROTOR_COUNT>
1.2

> <PUBCHEM_PHARMACOPHORE_FEATURES>
3
1 1 acceptor
3 5 9 10 hydrophobe
6 2 3 4 6 7 8 rings

> <PUBCHEM_HEAVY_ATOM_COUNT>
11

> <PUBCHEM_ATOM_DEF_STEREO_COUNT>
0

> <PUBCHEM_ATOM_UDEF_STEREO_COUNT>
2

> <PUBCHEM_BOND_DEF_STEREO_COUNT>
0

> <PUBCHEM_BOND_UDEF_STEREO_COUNT>
0

> <PUBCHEM_ISOTOPIC_ATOM_COUNT>
0

> <PUBCHEM_COMPONENT_COUNT>
1

> <PUBCHEM_CACTVS_TAUTO_COUNT>
5

> <PUBCHEM_CONFORMER_ID>
0001643B00000002

> <PUBCHEM_MMFF94_ENERGY>
25.4419

> <PUBCHEM_FEATURE_SELFOVERLAP>
15.223

> <PUBCHEM_SHAPE_FINGERPRINT>
10219947 1 18187365402514861725
12423570 1 15876137303154639766
13024252 1 15213284306047412076
13839132 238 16844465829264404401
14993402 34 18261110794082645940
15775835 57 17988651735579452289
16945 1 18408610266121961812
20653085 51 15769783463493069088
21040471 1 18410862057298168382
21061003 4 17477202730878593082
21922407 69 17844247315863084049
23419403 2 16326461982724867870
2748010 2 17973432209828352340
29004967 10 17386014935623005720
369184 2 18201708557569204224
5084963 1 17917709050400098888
68250623 7 16915954950010146078

> <PUBCHEM_SHAPE_MULTIPOLES>
220.51
3.55
1.5
1.17
0.65
0.7
-0.15
-0.54
-0.78
-0.02
0.16
-0.4
-0.41
-0.23

> <PUBCHEM_SHAPE_SELFOVERLAP>
462.758

> <PUBCHEM_SHAPE_VOLUME>
128.2

> <PUBCHEM_COORDINATE_TYPE>
2
5
10

$$$$
