91337
  -OEChem-11232108413D

 33 33  0     1  0  0  0  0  0999 V2000
   -1.9537   -0.4619   -0.6607 O   0  0  0  0  0  0  0  0  0  0  0  0
   -4.1146   -0.7596    0.1154 O   0  0  0  0  0  0  0  0  0  0  0  0
    2.2782   -0.5888    0.0943 C   0  0  0  0  0  0  0  0  0  0  0  0
   -0.0626    0.4046    0.5326 C   0  0  1  0  0  0  0  0  0  0  0  0
    0.7631   -0.8607    0.2481 C   0  0  0  0  0  0  0  0  0  0  0  0
    2.5086    0.5349   -0.9406 C   0  0  0  0  0  0  0  0  0  0  0  0
    0.2011    1.4786   -0.5293 C   0  0  0  0  0  0  0  0  0  0  0  0
    1.6877    1.7932   -0.6629 C   0  0  0  0  0  0  0  0  0  0  0  0
   -1.5528    0.0689    0.5956 C   0  0  1  0  0  0  0  0  0  0  0  0
    2.9036   -0.2126    1.4517 C   0  0  0  0  0  0  0  0  0  0  0  0
    2.9681   -1.8739   -0.4022 C   0  0  0  0  0  0  0  0  0  0  0  0
   -2.3658    1.3106    0.9124 C   0  0  0  0  0  0  0  0  0  0  0  0
   -3.2609   -0.8332   -0.7545 C   0  0  0  0  0  0  0  0  0  0  0  0
    0.2372    0.8026    1.5106 H   0  0  0  0  0  0  0  0  0  0  0  0
    0.5967   -1.5933    1.0488 H   0  0  0  0  0  0  0  0  0  0  0  0
    0.4006   -1.3314   -0.6758 H   0  0  0  0  0  0  0  0  0  0  0  0
    2.2433    0.1678   -1.9413 H   0  0  0  0  0  0  0  0  0  0  0  0
    3.5723    0.8006   -0.9828 H   0  0  0  0  0  0  0  0  0  0  0  0
   -0.3155    2.4124   -0.2822 H   0  0  0  0  0  0  0  0  0  0  0  0
   -0.1764    1.1553   -1.5075 H   0  0  0  0  0  0  0  0  0  0  0  0
    1.8360    2.5099   -1.4791 H   0  0  0  0  0  0  0  0  0  0  0  0
    2.0457    2.2838    0.2494 H   0  0  0  0  0  0  0  0  0  0  0  0
   -1.7105   -0.6880    1.3752 H   0  0  0  0  0  0  0  0  0  0  0  0
    2.4748    0.7006    1.8737 H   0  0  0  0  0  0  0  0  0  0  0  0
    3.9831   -0.0499    1.3535 H   0  0  0  0  0  0  0  0  0  0  0  0
    2.7561   -1.0128    2.1860 H   0  0  0  0  0  0  0  0  0  0  0  0
    2.8252   -2.6983    0.3055 H   0  0  0  0  0  0  0  0  0  0  0  0
    4.0463   -1.7216   -0.5258 H   0  0  0  0  0  0  0  0  0  0  0  0
    2.5655   -2.1937   -1.3699 H   0  0  0  0  0  0  0  0  0  0  0  0
   -2.5623    1.9181    0.0222 H   0  0  0  0  0  0  0  0  0  0  0  0
   -3.3404    1.0609    1.3425 H   0  0  0  0  0  0  0  0  0  0  0  0
   -1.8685    1.9344    1.6636 H   0  0  0  0  0  0  0  0  0  0  0  0
   -3.4411   -1.2231   -1.7679 H   0  0  0  0  0  0  0  0  0  0  0  0
  1  9  1  0  0  0  0
  1 13  1  0  0  0  0
  2 13  2  0  0  0  0
  3  5  1  0  0  0  0
  3  6  1  0  0  0  0
  3 10  1  0  0  0  0
  3 11  1  0  0  0  0
  4  5  1  0  0  0  0
  4  7  1  0  0  0  0
  4  9  1  0  0  0  0
  4 14  1  0  0  0  0
  5 15  1  0  0  0  0
  5 16  1  0  0  0  0
  6  8  1  0  0  0  0
  6 17  1  0  0  0  0
  6 18  1  0  0  0  0
  7  8  1  0  0  0  0
  7 19  1  0  0  0  0
  7 20  1  0  0  0  0
  8 21  1  0  0  0  0
  8 22  1  0  0  0  0
  9 12  1  0  0  0  0
  9 23  1  0  0  0  0
 10 24  1  0  0  0  0
 10 25  1  0  0  0  0
 10 26  1  0  0  0  0
 11 27  1  0  0  0  0
 11 28  1  0  0  0  0
 11 29  1  0  0  0  0
 12 30  1  0  0  0  0
 12 31  1  0  0  0  0
 12 32  1  0  0  0  0
 13 33  1  0  0  0  0
M  END
> <PUBCHEM_COMPOUND_CID>
91337

> <PUBCHEM_CONFORMER_RMSD>
0.6

> <PUBCHEM_CONFORMER_DIVERSEORDER>
8
42
15
30
38
41
35
36
7
20
25
33
14
22
1
31
29
23
32
27
28
10
17
21
39
6
11
19
34
12
16
26
9
37
18
24
2
3
40
4
5
13

> <PUBCHEM_MMFF94_PARTIAL_CHARGES>
5
1 -0.43
13 0.66
2 -0.57
33 0.06
9 0.28

> <PUBCHEM_EFFECTIVE_ROTOR_COUNT>
4.2

> <PUBCHEM_PHARMACOPHORE_FEATURES>
3
1 2 acceptor
3 3 10 11 hydrophobe
6 3 4 5 6 7 8 rings

> <PUBCHEM_HEAVY_ATOM_COUNT>
13

> <PUBCHEM_ATOM_DEF_STEREO_COUNT>
0

> <PUBCHEM_ATOM_UDEF_STEREO_COUNT>
2

> <PUBCHEM_BOND_DEF_STEREO_COUNT>
0

> <PUBCHEM_BOND_UDEF_STEREO_COUNT>
0

> <PUBCHEM_ISOTOPIC_ATOM_COUNT>
0

> <PUBCHEM_COMPONENT_COUNT>
1

> <PUBCHEM_CACTVS_TAUTO_COUNT>
1

> <PUBCHEM_CONFORMER_ID>
000164C900000008

> <PUBCHEM_MMFF94_ENERGY>
30.7251

> <PUBCHEM_FEATURE_SELFOVERLAP>
15.223

> <PUBCHEM_SHAPE_FINGERPRINT>
11769659 78 18201716210979502998
12932764 1 17418096520189199603
13705890 14 18113896104218847315
14128692 85 18413111632408536412
14144814 61 18409453591587958321
14251717 144 18334294292275047158
14350558 41 18202846547571796695
14993402 34 18408328799988452062
15219456 202 14620803682085671809
15219459 52 18409172129533287278
15477762 27 18408322219739955791
15757776 16 18187642526890044662
16945 1 18337684116925576480
18186145 218 17458341936048418487
19422 9 18341059540271226387
20201158 50 17894911832286739034
20279233 1 15841833322342297909
20361792 2 18187365385303175182
20559304 39 18342741844453677144
20645477 70 18261106413643667975
20671657 53 17968088690480507442
20711985 327 18261103050673472440
20711985 344 17461157643582936108
20871998 22 18336824187332349942
21501925 9 18408876343698867336
21947302 44 17531527706062332748
22802520 49 15502653754506964877
23402539 116 18115869599417120934
23419403 2 17464489335793488100
23552423 10 18409735023472636155
23598291 2 18338532836675473869
2748010 2 16821087794028254636
3248919 1 18334580148128871483
7364860 26 18342459291862343744
77492 1 18343030999090388977
8030462 33 18338811098921668949

> <PUBCHEM_SHAPE_MULTIPOLES>
255.8
5.87
1.68
1.11
3.79
0.24
-0.18
-2.25
0.1
-0.62
0.32
-0.33
0.11
-0.6

> <PUBCHEM_SHAPE_SELFOVERLAP>
503.415

> <PUBCHEM_SHAPE_VOLUME>
152

> <PUBCHEM_COORDINATE_TYPE>
2
5
10

$$$$
