91339
  -OEChem-11232108453D

 36 36  0     1  0  0  0  0  0999 V2000
   -1.7632   -0.3489   -0.2336 O   0  0  0  0  0  0  0  0  0  0  0  0
   -3.8435   -0.1356    0.7482 O   0  0  0  0  0  0  0  0  0  0  0  0
    2.5031   -0.6219    0.2348 C   0  0  0  0  0  0  0  0  0  0  0  0
    0.2895    0.6869    0.4481 C   0  0  1  0  0  0  0  0  0  0  0  0
    0.9949   -0.6733    0.5750 C   0  0  0  0  0  0  0  0  0  0  0  0
    2.7090    0.0454   -1.1433 C   0  0  0  0  0  0  0  0  0  0  0  0
    0.5225    1.2951   -0.9398 C   0  0  0  0  0  0  0  0  0  0  0  0
    2.0072    1.3962   -1.2743 C   0  0  0  0  0  0  0  0  0  0  0  0
   -1.2072    0.5420    0.7245 C   0  0  1  0  0  0  0  0  0  0  0  0
    3.2811    0.1378    1.3269 C   0  0  0  0  0  0  0  0  0  0  0  0
    3.0518   -2.0605    0.1799 C   0  0  0  0  0  0  0  0  0  0  0  0
   -1.8985    1.8901    0.6352 C   0  0  0  0  0  0  0  0  0  0  0  0
   -3.1011   -0.6024   -0.1051 C   0  0  0  0  0  0  0  0  0  0  0  0
   -3.5456   -1.5511   -1.1766 C   0  0  0  0  0  0  0  0  0  0  0  0
    0.7091    1.3673    1.2001 H   0  0  0  0  0  0  0  0  0  0  0  0
    0.8567   -1.0630    1.5922 H   0  0  0  0  0  0  0  0  0  0  0  0
    0.5132   -1.3967   -0.0966 H   0  0  0  0  0  0  0  0  0  0  0  0
    2.3237   -0.6176   -1.9297 H   0  0  0  0  0  0  0  0  0  0  0  0
    3.7794    0.1741   -1.3471 H   0  0  0  0  0  0  0  0  0  0  0  0
    0.0974    2.3026   -1.0051 H   0  0  0  0  0  0  0  0  0  0  0  0
    0.0308    0.6917   -1.7131 H   0  0  0  0  0  0  0  0  0  0  0  0
    2.1248    1.7675   -2.2992 H   0  0  0  0  0  0  0  0  0  0  0  0
    2.4846    2.1347   -0.6202 H   0  0  0  0  0  0  0  0  0  0  0  0
   -1.3402    0.1212    1.7298 H   0  0  0  0  0  0  0  0  0  0  0  0
    2.9589    1.1781    1.4265 H   0  0  0  0  0  0  0  0  0  0  0  0
    4.3546    0.1496    1.1061 H   0  0  0  0  0  0  0  0  0  0  0  0
    3.1506   -0.3399    2.3047 H   0  0  0  0  0  0  0  0  0  0  0  0
    2.9217   -2.5704    1.1412 H   0  0  0  0  0  0  0  0  0  0  0  0
    4.1209   -2.0673   -0.0608 H   0  0  0  0  0  0  0  0  0  0  0  0
    2.5365   -2.6545   -0.5833 H   0  0  0  0  0  0  0  0  0  0  0  0
   -2.1435    2.1648   -0.3967 H   0  0  0  0  0  0  0  0  0  0  0  0
   -2.8381    1.9052    1.1956 H   0  0  0  0  0  0  0  0  0  0  0  0
   -1.2862    2.6844    1.0766 H   0  0  0  0  0  0  0  0  0  0  0  0
   -3.0041   -2.4957   -1.0826 H   0  0  0  0  0  0  0  0  0  0  0  0
   -3.3747   -1.1052   -2.1596 H   0  0  0  0  0  0  0  0  0  0  0  0
   -4.6153   -1.7496   -1.0647 H   0  0  0  0  0  0  0  0  0  0  0  0
  1  9  1  0  0  0  0
  1 13  1  0  0  0  0
  2 13  2  0  0  0  0
  3  5  1  0  0  0  0
  3  6  1  0  0  0  0
  3 10  1  0  0  0  0
  3 11  1  0  0  0  0
  4  5  1  0  0  0  0
  4  7  1  0  0  0  0
  4  9  1  0  0  0  0
  4 15  1  0  0  0  0
  5 16  1  0  0  0  0
  5 17  1  0  0  0  0
  6  8  1  0  0  0  0
  6 18  1  0  0  0  0
  6 19  1  0  0  0  0
  7  8  1  0  0  0  0
  7 20  1  0  0  0  0
  7 21  1  0  0  0  0
  8 22  1  0  0  0  0
  8 23  1  0  0  0  0
  9 12  1  0  0  0  0
  9 24  1  0  0  0  0
 10 25  1  0  0  0  0
 10 26  1  0  0  0  0
 10 27  1  0  0  0  0
 11 28  1  0  0  0  0
 11 29  1  0  0  0  0
 11 30  1  0  0  0  0
 12 31  1  0  0  0  0
 12 32  1  0  0  0  0
 12 33  1  0  0  0  0
 13 14  1  0  0  0  0
 14 34  1  0  0  0  0
 14 35  1  0  0  0  0
 14 36  1  0  0  0  0
M  END
> <PUBCHEM_COMPOUND_CID>
91339

> <PUBCHEM_CONFORMER_RMSD>
0.6

> <PUBCHEM_CONFORMER_DIVERSEORDER>
10
20
74
35
69
22
75
28
71
32
52
59
44
50
8
49
67
46
73
30
76
68
3
63
54
48
56
29
62
24
55
15
9
66
11
64
26
18
38
39
27
72
65
43
51
19
23
13
4
70
61
58
34
31
16
25
53
33
41
21
1
47
14
60
57
40
42
37
2
5
12
36
7
17
45
6

> <PUBCHEM_MMFF94_PARTIAL_CHARGES>
5
1 -0.43
13 0.66
14 0.06
2 -0.57
9 0.28

> <PUBCHEM_EFFECTIVE_ROTOR_COUNT>
4.2

> <PUBCHEM_PHARMACOPHORE_FEATURES>
3
1 2 acceptor
3 3 10 11 hydrophobe
6 3 4 5 6 7 8 rings

> <PUBCHEM_HEAVY_ATOM_COUNT>
14

> <PUBCHEM_ATOM_DEF_STEREO_COUNT>
0

> <PUBCHEM_ATOM_UDEF_STEREO_COUNT>
2

> <PUBCHEM_BOND_DEF_STEREO_COUNT>
0

> <PUBCHEM_BOND_UDEF_STEREO_COUNT>
0

> <PUBCHEM_ISOTOPIC_ATOM_COUNT>
0

> <PUBCHEM_COMPONENT_COUNT>
1

> <PUBCHEM_CACTVS_TAUTO_COUNT>
1

> <PUBCHEM_CONFORMER_ID>
000164CB0000000A

> <PUBCHEM_MMFF94_ENERGY>
30.2037

> <PUBCHEM_FEATURE_SELFOVERLAP>
15.223

> <PUBCHEM_SHAPE_FINGERPRINT>
11471102 22 13542194861227790572
11578080 2 18266716065717872537
11769659 78 18341607084024086626
12500047 106 17984420728788750368
12932764 1 18130516257480698368
13296908 3 17918273121413720552
13705890 14 17458345285732525786
14181834 199 17603868940188667348
14289901 80 18201715150354514640
14350558 41 18413107251415488810
15342816 4 17987513882936718119
15477762 27 18186804698808295590
15757776 16 18040433304609252518
16945 1 18262811760230345888
17834072 14 17677310780437154084
17844478 74 15051742975088555736
18186145 218 16370724820603136615
18522853 266 18129668465311952420
19422 9 18409176523574825483
20279233 1 16702304538044290317
20281407 28 18131915970480101659
20281475 54 18413109485194089203
20361792 2 17894915079266047564
20559304 39 18409174315719009624
20645477 70 17822012038185721355
20671657 53 17458337516210533792
21501925 9 18187357731961701584
21639500 275 17677059073593974676
21730867 7 14333414458151688316
21947302 44 16733269061667663820
22112679 90 18337403638117969601
22485316 2 18202557389267683147
22802520 49 14490471945884453772
232386 152 18131069359306133967
23402539 116 17677614151637233186
23419403 2 17099980362013454076
23557571 272 17704073975509561888
23559900 14 18059849511756249456
23598291 2 18117014203157464589
251288 83 17130978922819371094
2748010 2 16456569994127356948
3248919 1 18040722458633956904
603831 33 18339368551332685052
7364860 26 18336835272811921388
77492 1 18409740559864835217
8030462 33 18262533557881720540
81539 233 16951696976906544684
9882013 296 15769483343904927823

> <PUBCHEM_SHAPE_MULTIPOLES>
276.37
6.48
1.79
1.27
3.35
0.11
-0.18
2.76
0.05
-0.04
-0.23
-0.39
-0.2
-1.07

> <PUBCHEM_SHAPE_SELFOVERLAP>
544.101

> <PUBCHEM_SHAPE_VOLUME>
164.9

> <PUBCHEM_COORDINATE_TYPE>
2
5
10

$$$$
