91338
  -OEChem-11232108513D

 31 31  0     1  0  0  0  0  0999 V2000
    2.4343   -1.6725    0.0314 O   0  0  0  0  0  0  0  0  0  0  0  0
   -1.6845   -0.4369    0.0103 C   0  0  0  0  0  0  0  0  0  0  0  0
    0.8324    0.1133    0.1533 C   0  0  2  0  0  0  0  0  0  0  0  0
   -0.2442   -0.8484   -0.3757 C   0  0  0  0  0  0  0  0  0  0  0  0
   -1.9349    1.0355   -0.3856 C   0  0  0  0  0  0  0  0  0  0  0  0
    0.5356    1.5547   -0.2764 C   0  0  0  0  0  0  0  0  0  0  0  0
   -0.8657    1.9941    0.1361 C   0  0  0  0  0  0  0  0  0  0  0  0
    2.2178   -0.3149   -0.3315 C   0  0  1  0  0  0  0  0  0  0  0  0
   -1.9224   -0.6407    1.5192 C   0  0  0  0  0  0  0  0  0  0  0  0
   -2.6805   -1.3342   -0.7494 C   0  0  0  0  0  0  0  0  0  0  0  0
    3.3121    0.5499    0.2682 C   0  0  0  0  0  0  0  0  0  0  0  0
    0.8199    0.0594    1.2498 H   0  0  0  0  0  0  0  0  0  0  0  0
   -0.1663   -0.8941   -1.4710 H   0  0  0  0  0  0  0  0  0  0  0  0
   -0.0548   -1.8667   -0.0128 H   0  0  0  0  0  0  0  0  0  0  0  0
   -2.9187    1.3633   -0.0274 H   0  0  0  0  0  0  0  0  0  0  0  0
   -1.9629    1.1179   -1.4805 H   0  0  0  0  0  0  0  0  0  0  0  0
    0.6381    1.6507   -1.3649 H   0  0  0  0  0  0  0  0  0  0  0  0
    1.2472    2.2538    0.1752 H   0  0  0  0  0  0  0  0  0  0  0  0
   -0.9245    2.0669    1.2281 H   0  0  0  0  0  0  0  0  0  0  0  0
   -1.0605    3.0003   -0.2531 H   0  0  0  0  0  0  0  0  0  0  0  0
    2.2770   -0.2642   -1.4246 H   0  0  0  0  0  0  0  0  0  0  0  0
   -2.9521   -0.3814    1.7912 H   0  0  0  0  0  0  0  0  0  0  0  0
   -1.7596   -1.6865    1.8037 H   0  0  0  0  0  0  0  0  0  0  0  0
   -1.2598   -0.0276    2.1364 H   0  0  0  0  0  0  0  0  0  0  0  0
   -2.5347   -2.3903   -0.4958 H   0  0  0  0  0  0  0  0  0  0  0  0
   -3.7159   -1.0711   -0.5053 H   0  0  0  0  0  0  0  0  0  0  0  0
   -2.5596   -1.2336   -1.8339 H   0  0  0  0  0  0  0  0  0  0  0  0
    4.2952    0.1183    0.0480 H   0  0  0  0  0  0  0  0  0  0  0  0
    3.3034    1.5689   -0.1275 H   0  0  0  0  0  0  0  0  0  0  0  0
    3.2325    0.5931    1.3601 H   0  0  0  0  0  0  0  0  0  0  0  0
    2.4143   -1.7302    1.0021 H   0  0  0  0  0  0  0  0  0  0  0  0
  1  8  1  0  0  0  0
  1 31  1  0  0  0  0
  2  4  1  0  0  0  0
  2  5  1  0  0  0  0
  2  9  1  0  0  0  0
  2 10  1  0  0  0  0
  3  4  1  0  0  0  0
  3  6  1  0  0  0  0
  3  8  1  0  0  0  0
  3 12  1  0  0  0  0
  4 13  1  0  0  0  0
  4 14  1  0  0  0  0
  5  7  1  0  0  0  0
  5 15  1  0  0  0  0
  5 16  1  0  0  0  0
  6  7  1  0  0  0  0
  6 17  1  0  0  0  0
  6 18  1  0  0  0  0
  7 19  1  0  0  0  0
  7 20  1  0  0  0  0
  8 11  1  0  0  0  0
  8 21  1  0  0  0  0
  9 22  1  0  0  0  0
  9 23  1  0  0  0  0
  9 24  1  0  0  0  0
 10 25  1  0  0  0  0
 10 26  1  0  0  0  0
 10 27  1  0  0  0  0
 11 28  1  0  0  0  0
 11 29  1  0  0  0  0
 11 30  1  0  0  0  0
M  END
> <PUBCHEM_COMPOUND_CID>
91338

> <PUBCHEM_CONFORMER_RMSD>
0.6

> <PUBCHEM_CONFORMER_DIVERSEORDER>
1
10
8
6
11
4
9
5
7
2
3

> <PUBCHEM_MMFF94_PARTIAL_CHARGES>
3
1 -0.68
31 0.4
8 0.28

> <PUBCHEM_EFFECTIVE_ROTOR_COUNT>
2.2

> <PUBCHEM_PHARMACOPHORE_FEATURES>
4
1 1 acceptor
1 1 donor
3 2 9 10 hydrophobe
6 2 3 4 5 6 7 rings

> <PUBCHEM_HEAVY_ATOM_COUNT>
11

> <PUBCHEM_ATOM_DEF_STEREO_COUNT>
0

> <PUBCHEM_ATOM_UDEF_STEREO_COUNT>
2

> <PUBCHEM_BOND_DEF_STEREO_COUNT>
0

> <PUBCHEM_BOND_UDEF_STEREO_COUNT>
0

> <PUBCHEM_ISOTOPIC_ATOM_COUNT>
0

> <PUBCHEM_COMPONENT_COUNT>
1

> <PUBCHEM_CACTVS_TAUTO_COUNT>
1

> <PUBCHEM_CONFORMER_ID>
000164CA00000001

> <PUBCHEM_MMFF94_ENERGY>
23.3405

> <PUBCHEM_FEATURE_SELFOVERLAP>
20.297

> <PUBCHEM_SHAPE_FINGERPRINT>
10857977 72 18410004472762477256
12524768 44 18195533592719241678
12716758 59 18116148866047184688
12932764 1 18272098175451444062
13024252 1 17676490523277200261
14128692 85 17843394331089699735
15775835 57 18202286904816825426
16945 1 18263371441502612860
19973954 147 18339644430325750308
20201158 50 18260543476110703906
20871998 184 18272934899336279663
21501502 16 18339640028015744992
21524375 3 17614563631720025205
23552423 10 18260832553448475950
241688 4 18412258467330844057
2748010 2 18339081480198054540
29004967 10 18334301997667733946
3248919 1 17676210173608392430
369184 2 18271805692077823891
5084963 1 18059292174934849531
8030462 33 18260554394223558102
81228 2 18260546667303546985

> <PUBCHEM_SHAPE_MULTIPOLES>
220.51
4.28
1.81
0.93
2.29
0.5
0.27
-1.2
0.04
-0.22
-0.13
-0.54
-0.16
0

> <PUBCHEM_SHAPE_SELFOVERLAP>
428.119

> <PUBCHEM_SHAPE_VOLUME>
134.1

> <PUBCHEM_COORDINATE_TYPE>
2
5
10

$$$$
