91497
  -OEChem-11232108423D

 45 47  0     1  0  0  0  0  0999 V2000
    4.0443   -1.2090    0.4690 O   0  0  0  0  0  0  0  0  0  0  0  0
   -2.8983    0.1587   -0.4610 C   0  0  1  0  0  0  0  0  0  0  0  0
   -1.9722    1.3096    0.0700 C   0  0  0  0  0  0  0  0  0  0  0  0
   -2.1936   -1.2065   -0.1389 C   0  0  0  0  0  0  0  0  0  0  0  0
   -0.6243    0.6219    0.0375 C   0  0  0  0  0  0  0  0  0  0  0  0
   -0.7476   -0.7669   -0.0739 C   0  0  0  0  0  0  0  0  0  0  0  0
   -4.3574    0.2503   -0.0164 C   0  0  0  0  0  0  0  0  0  0  0  0
   -2.2854    1.7883    1.4953 C   0  0  0  0  0  0  0  0  0  0  0  0
   -2.0283    2.5156   -0.8836 C   0  0  0  0  0  0  0  0  0  0  0  0
   -2.6095   -1.8526    1.1909 C   0  0  0  0  0  0  0  0  0  0  0  0
   -2.4398   -2.2105   -1.2782 C   0  0  0  0  0  0  0  0  0  0  0  0
    0.6306    1.2174    0.1317 C   0  0  0  0  0  0  0  0  0  0  0  0
    0.3828   -1.5742   -0.0827 C   0  0  0  0  0  0  0  0  0  0  0  0
    1.7869    0.4213    0.0923 C   0  0  0  0  0  0  0  0  0  0  0  0
    1.6527   -0.9846    0.0139 C   0  0  0  0  0  0  0  0  0  0  0  0
    3.1736    1.0324    0.2206 C   0  0  1  0  0  0  0  0  0  0  0  0
    2.8723   -1.8703   -0.0097 C   0  0  0  0  0  0  0  0  0  0  0  0
    4.2500    0.0272   -0.2104 C   0  0  0  0  0  0  0  0  0  0  0  0
    3.3631    2.3321   -0.5666 C   0  0  0  0  0  0  0  0  0  0  0  0
   -2.9165    0.2515   -1.5592 H   0  0  0  0  0  0  0  0  0  0  0  0
   -4.4691    0.1701    1.0688 H   0  0  0  0  0  0  0  0  0  0  0  0
   -4.7960    1.2039   -0.3279 H   0  0  0  0  0  0  0  0  0  0  0  0
   -4.9502   -0.5489   -0.4734 H   0  0  0  0  0  0  0  0  0  0  0  0
   -1.5511    2.5308    1.8312 H   0  0  0  0  0  0  0  0  0  0  0  0
   -3.2707    2.2635    1.5502 H   0  0  0  0  0  0  0  0  0  0  0  0
   -2.2629    0.9739    2.2244 H   0  0  0  0  0  0  0  0  0  0  0  0
   -1.3632    3.3222   -0.5542 H   0  0  0  0  0  0  0  0  0  0  0  0
   -1.7230    2.2412   -1.9001 H   0  0  0  0  0  0  0  0  0  0  0  0
   -3.0423    2.9268   -0.9372 H   0  0  0  0  0  0  0  0  0  0  0  0
   -2.4597   -1.1861    2.0445 H   0  0  0  0  0  0  0  0  0  0  0  0
   -3.6627   -2.1529    1.1776 H   0  0  0  0  0  0  0  0  0  0  0  0
   -2.0202   -2.7560    1.3908 H   0  0  0  0  0  0  0  0  0  0  0  0
   -3.5082   -2.4270   -1.3865 H   0  0  0  0  0  0  0  0  0  0  0  0
   -2.0753   -1.8284   -2.2390 H   0  0  0  0  0  0  0  0  0  0  0  0
   -1.9278   -3.1622   -1.0951 H   0  0  0  0  0  0  0  0  0  0  0  0
    0.7023    2.2941    0.2463 H   0  0  0  0  0  0  0  0  0  0  0  0
    0.2871   -2.6539   -0.1537 H   0  0  0  0  0  0  0  0  0  0  0  0
    3.3156    1.2421    1.2896 H   0  0  0  0  0  0  0  0  0  0  0  0
    2.7141   -2.7414    0.6350 H   0  0  0  0  0  0  0  0  0  0  0  0
    3.0549   -2.2277   -1.0300 H   0  0  0  0  0  0  0  0  0  0  0  0
    4.2533   -0.1414   -1.2953 H   0  0  0  0  0  0  0  0  0  0  0  0
    5.2432    0.3969    0.0672 H   0  0  0  0  0  0  0  0  0  0  0  0
    3.1255    2.1937   -1.6274 H   0  0  0  0  0  0  0  0  0  0  0  0
    2.7266    3.1352   -0.1822 H   0  0  0  0  0  0  0  0  0  0  0  0
    4.3985    2.6828   -0.4937 H   0  0  0  0  0  0  0  0  0  0  0  0
  1 17  1  0  0  0  0
  1 18  1  0  0  0  0
  2  3  1  0  0  0  0
  2  4  1  0  0  0  0
  2  7  1  0  0  0  0
  2 20  1  0  0  0  0
  3  5  1  0  0  0  0
  3  8  1  0  0  0  0
  3  9  1  0  0  0  0
  4  6  1  0  0  0  0
  4 10  1  0  0  0  0
  4 11  1  0  0  0  0
  5  6  2  0  0  0  0
  5 12  1  0  0  0  0
  6 13  1  0  0  0  0
  7 21  1  0  0  0  0
  7 22  1  0  0  0  0
  7 23  1  0  0  0  0
  8 24  1  0  0  0  0
  8 25  1  0  0  0  0
  8 26  1  0  0  0  0
  9 27  1  0  0  0  0
  9 28  1  0  0  0  0
  9 29  1  0  0  0  0
 10 30  1  0  0  0  0
 10 31  1  0  0  0  0
 10 32  1  0  0  0  0
 11 33  1  0  0  0  0
 11 34  1  0  0  0  0
 11 35  1  0  0  0  0
 12 14  2  0  0  0  0
 12 36  1  0  0  0  0
 13 15  2  0  0  0  0
 13 37  1  0  0  0  0
 14 15  1  0  0  0  0
 14 16  1  0  0  0  0
 15 17  1  0  0  0  0
 16 18  1  0  0  0  0
 16 19  1  0  0  0  0
 16 38  1  0  0  0  0
 17 39  1  0  0  0  0
 17 40  1  0  0  0  0
 18 41  1  0  0  0  0
 18 42  1  0  0  0  0
 19 43  1  0  0  0  0
 19 44  1  0  0  0  0
 19 45  1  0  0  0  0
M  END
> <PUBCHEM_COMPOUND_CID>
91497

> <PUBCHEM_CONFORMER_RMSD>
0.6

> <PUBCHEM_CONFORMER_DIVERSEORDER>
2
4
1
3
5

> <PUBCHEM_MMFF94_PARTIAL_CHARGES>
14
1 -0.56
12 -0.15
13 -0.15
14 -0.14
15 -0.14
16 0.14
17 0.42
18 0.28
3 0.14
36 0.15
37 0.15
4 0.14
5 -0.14
6 -0.14

> <PUBCHEM_EFFECTIVE_ROTOR_COUNT>
1.4

> <PUBCHEM_PHARMACOPHORE_FEATURES>
6
1 1 acceptor
3 3 8 9 hydrophobe
3 4 10 11 hydrophobe
5 2 3 4 5 6 rings
6 1 14 15 16 17 18 rings
6 5 6 12 13 14 15 rings

> <PUBCHEM_HEAVY_ATOM_COUNT>
19

> <PUBCHEM_ATOM_DEF_STEREO_COUNT>
0

> <PUBCHEM_ATOM_UDEF_STEREO_COUNT>
2

> <PUBCHEM_BOND_DEF_STEREO_COUNT>
0

> <PUBCHEM_BOND_UDEF_STEREO_COUNT>
0

> <PUBCHEM_ISOTOPIC_ATOM_COUNT>
0

> <PUBCHEM_COMPONENT_COUNT>
1

> <PUBCHEM_CACTVS_TAUTO_COUNT>
1

> <PUBCHEM_CONFORMER_ID>
0001656900000002

> <PUBCHEM_MMFF94_ENERGY>
70.6901

> <PUBCHEM_FEATURE_SELFOVERLAP>
30.544

> <PUBCHEM_SHAPE_FINGERPRINT>
10062212 137 18411971477531969410
10411042 1 15887997822022184466
10608611 8 18408881824177617012
10616163 171 18341896324417947062
10967382 1 18410854347905744452
11132069 177 18342733052729358480
11578080 2 17201335585718086969
12173636 292 17845374345420626641
12251169 10 18411700941831336178
12403814 3 18334014969604628297
12553582 1 18124875917486219542
13027679 85 18056480775833064777
13140716 1 18411421670373256856
13221675 6 18408604738367332562
13224815 77 18334862752977262896
13583140 156 17459192880369972393
14144814 61 18410011001186451216
14223421 5 18335984254774329864
14614273 12 18335699412612045565
14787075 74 17174903450387514370
14790565 3 17759822724332540877
15196674 1 18411135882864356183
15442244 35 18267020566440667370
15536298 74 18342737425470185356
16945 1 18190750734402739595
17492 89 18410854378156132238
17802600 8 18410005507775774836
18186145 218 18270404884695333308
19050596 39 18408884061908104930
200 152 18131061649961124463
20510252 161 18340208616823356939
21267235 1 18411427184958640950
21501502 16 18411700993465804744
21524375 3 18194683662057890921
221490 88 18335990839339275682
2334 1 18411138065018855448
23366157 5 18040435491195901570
23402539 116 18341323500239526430
23463225 33 18410009923239330596
23557571 272 18129389361115283839
23559900 14 18411131429563499530
238 59 15804076930342262485
2748010 2 18412825768080724926
312423 11 18337402612021355246
335352 9 18050566244730348580
34934 24 18410569630444964149
350125 39 18411140220966214312
4028521 119 18261100842986351477
474 4 17895198873936938156
5104073 3 18409729594591621003
559249 180 18119238464147393010
58051976 100 18410296908469210686
69090 78 18341045229598445215
7097593 13 17970900060430788098
7364860 26 18413106169727159028
74978 22 18337389336161197288
7832392 63 18337670789874133012
8809292 202 18333452049272892643
90525 40 18202845430875044774
9709674 26 18411140199407163798
9981440 41 17831294279131443480

> <PUBCHEM_SHAPE_MULTIPOLES>
385.14
7.29
2.65
0.98
3.84
0.33
0.1
0.13
-0.06
-0.37
-0.27
-0.69
0.03
-0.44

> <PUBCHEM_SHAPE_SELFOVERLAP>
824.462

> <PUBCHEM_SHAPE_VOLUME>
217.9

> <PUBCHEM_COORDINATE_TYPE>
2
5
10

$$$$
