91850
  -OEChem-11232108473D

 38 37  0     0  0  0  0  0  0999 V2000
   -1.5039   -0.2170   -0.5575 O   0  0  0  0  0  0  0  0  0  0  0  0
   -2.7884   -1.8373    0.4646 O   0  0  0  0  0  0  0  0  0  0  0  0
    3.3683    0.3721   -0.2407 C   0  0  0  0  0  0  0  0  0  0  0  0
    2.1720   -0.4865    0.1758 C   0  0  0  0  0  0  0  0  0  0  0  0
    4.7031   -0.1341    0.3135 C   0  0  0  0  0  0  0  0  0  0  0  0
    0.8720    0.0489   -0.4227 C   0  0  0  0  0  0  0  0  0  0  0  0
    5.9070    0.6801   -0.1623 C   0  0  0  0  0  0  0  0  0  0  0  0
   -0.3304   -0.7733    0.0191 C   0  0  0  0  0  0  0  0  0  0  0  0
   -4.5139    0.9091   -0.1150 C   0  0  0  0  0  0  0  0  0  0  0  0
   -3.8224   -0.1651   -0.9690 C   0  0  0  0  0  0  0  0  0  0  0  0
    7.2118    0.0950    0.3567 C   0  0  0  0  0  0  0  0  0  0  0  0
   -2.6797   -0.8513   -0.2513 C   0  0  0  0  0  0  0  0  0  0  0  0
   -3.5321    2.0387    0.2020 C   0  0  0  0  0  0  0  0  0  0  0  0
   -5.0635    0.3207    1.1869 C   0  0  0  0  0  0  0  0  0  0  0  0
    3.2105    1.4047    0.0945 H   0  0  0  0  0  0  0  0  0  0  0  0
    3.4249    0.4002   -1.3361 H   0  0  0  0  0  0  0  0  0  0  0  0
    2.3298   -1.5209   -0.1522 H   0  0  0  0  0  0  0  0  0  0  0  0
    2.0983   -0.5011    1.2698 H   0  0  0  0  0  0  0  0  0  0  0  0
    4.8369   -1.1810    0.0134 H   0  0  0  0  0  0  0  0  0  0  0  0
    4.6655   -0.1223    1.4099 H   0  0  0  0  0  0  0  0  0  0  0  0
    0.9297    0.0506   -1.5183 H   0  0  0  0  0  0  0  0  0  0  0  0
    0.7214    1.0953   -0.1289 H   0  0  0  0  0  0  0  0  0  0  0  0
    5.8111    1.7172    0.1788 H   0  0  0  0  0  0  0  0  0  0  0  0
    5.9331    0.6991   -1.2579 H   0  0  0  0  0  0  0  0  0  0  0  0
   -0.2169   -1.8120   -0.3131 H   0  0  0  0  0  0  0  0  0  0  0  0
   -0.4174   -0.7533    1.1118 H   0  0  0  0  0  0  0  0  0  0  0  0
   -5.3488    1.3213   -0.6946 H   0  0  0  0  0  0  0  0  0  0  0  0
   -3.4545    0.2612   -1.9103 H   0  0  0  0  0  0  0  0  0  0  0  0
   -4.5410   -0.9426   -1.2564 H   0  0  0  0  0  0  0  0  0  0  0  0
    7.2294    0.0859    1.4512 H   0  0  0  0  0  0  0  0  0  0  0  0
    8.0599    0.6927    0.0081 H   0  0  0  0  0  0  0  0  0  0  0  0
    7.3508   -0.9311    0.0016 H   0  0  0  0  0  0  0  0  0  0  0  0
   -4.0527    2.8622    0.7032 H   0  0  0  0  0  0  0  0  0  0  0  0
   -3.0859    2.4396   -0.7142 H   0  0  0  0  0  0  0  0  0  0  0  0
   -2.7243    1.7132    0.8654 H   0  0  0  0  0  0  0  0  0  0  0  0
   -5.7244   -0.5279    0.9818 H   0  0  0  0  0  0  0  0  0  0  0  0
   -5.6478    1.0741    1.7264 H   0  0  0  0  0  0  0  0  0  0  0  0
   -4.2674   -0.0178    1.8579 H   0  0  0  0  0  0  0  0  0  0  0  0
  1  8  1  0  0  0  0
  1 12  1  0  0  0  0
  2 12  2  0  0  0  0
  3  4  1  0  0  0  0
  3  5  1  0  0  0  0
  3 15  1  0  0  0  0
  3 16  1  0  0  0  0
  4  6  1  0  0  0  0
  4 17  1  0  0  0  0
  4 18  1  0  0  0  0
  5  7  1  0  0  0  0
  5 19  1  0  0  0  0
  5 20  1  0  0  0  0
  6  8  1  0  0  0  0
  6 21  1  0  0  0  0
  6 22  1  0  0  0  0
  7 11  1  0  0  0  0
  7 23  1  0  0  0  0
  7 24  1  0  0  0  0
  8 25  1  0  0  0  0
  8 26  1  0  0  0  0
  9 10  1  0  0  0  0
  9 13  1  0  0  0  0
  9 14  1  0  0  0  0
  9 27  1  0  0  0  0
 10 12  1  0  0  0  0
 10 28  1  0  0  0  0
 10 29  1  0  0  0  0
 11 30  1  0  0  0  0
 11 31  1  0  0  0  0
 11 32  1  0  0  0  0
 13 33  1  0  0  0  0
 13 34  1  0  0  0  0
 13 35  1  0  0  0  0
 14 36  1  0  0  0  0
 14 37  1  0  0  0  0
 14 38  1  0  0  0  0
M  END
> <PUBCHEM_COMPOUND_CID>
91850

> <PUBCHEM_CONFORMER_RMSD>
1

> <PUBCHEM_CONFORMER_DIVERSEORDER>
1
25
152
2
29
291
129
167
514
7
413
508
6
393
39
280
421
140
295
490
494
184
34
231
428
32
43
16
118
369
437
208
59
342
33
75
175
496
468
205
475
136
125
8
28
9
119
4
198
394
48
158
449
388
81
18
326
58
518
383
3
340
36
67
108
229
313
259
146
384
391
37
99
450
22
355
21
139
188
262
196
13
300
343
50
76
123
331
446

> <PUBCHEM_MMFF94_PARTIAL_CHARGES>
5
1 -0.43
10 0.06
12 0.66
2 -0.57
8 0.28

> <PUBCHEM_EFFECTIVE_ROTOR_COUNT>
9

> <PUBCHEM_PHARMACOPHORE_FEATURES>
4
1 11 hydrophobe
1 2 acceptor
3 9 13 14 hydrophobe
5 3 4 5 6 7 hydrophobe

> <PUBCHEM_HEAVY_ATOM_COUNT>
14

> <PUBCHEM_ATOM_DEF_STEREO_COUNT>
0

> <PUBCHEM_ATOM_UDEF_STEREO_COUNT>
0

> <PUBCHEM_BOND_DEF_STEREO_COUNT>
0

> <PUBCHEM_BOND_UDEF_STEREO_COUNT>
0

> <PUBCHEM_ISOTOPIC_ATOM_COUNT>
0

> <PUBCHEM_COMPONENT_COUNT>
1

> <PUBCHEM_CACTVS_TAUTO_COUNT>
1

> <PUBCHEM_CONFORMER_ID>
000166CA00000001

> <PUBCHEM_MMFF94_ENERGY>
5.4308

> <PUBCHEM_FEATURE_SELFOVERLAP>
20.297

> <PUBCHEM_SHAPE_FINGERPRINT>
10680689 15 17988922314044752199
11287383 113 11386371439686506046
11315181 36 18187081797128766855
117890 112 18272088292984890504
12091667 2 18202280329649241206
12596602 18 17458063754953337544
13288520 33 7997966873845007649
13740256 8 11169919381213137222
14123238 8 7925913686290544652
1420 363 13406793311988112360
14251718 22 9007057972519725444
14251732 16 7853558112022705246
14251764 18 18412261739874442227
15501527 16 18342176669786220352
15716309 27 14129060322303774136
16079462 125 17346305017335941160
17834076 25 18413106165094458238
19489759 90 18202279212477553236
200 152 12175619564542342523
20281389 69 18410571782313666096
20621476 66 18059301967677004441
20621476 8 18337108974066241790
20645477 56 18342738511859592991
20645477 70 16773525356510219638
23402539 116 17917424350361703180
23559900 14 9150874058451102679
300161 21 18409160000740692134
3545911 37 18413390925583974264
42788 4 18411697703911213766
441001 317 18343581837088466016
474229 33 7925910383334613408
49783359 22 12612751319828280472
542803 24 18411135853474688500
57483677 66 9583526412788566380
57583515 80 15410897353491061818
7062679 6 18410579465925866612
7495541 125 12179857099762624606

> <PUBCHEM_SHAPE_MULTIPOLES>
276.37
16.49
1.33
0.85
23.61
0.21
0.05
4.15
2.35
-1.77
0.12
-0.72
-0.01
-0.22

> <PUBCHEM_SHAPE_SELFOVERLAP>
505.346

> <PUBCHEM_SHAPE_VOLUME>
176.3

> <PUBCHEM_COORDINATE_TYPE>
2
5
10

$$$$
