92043553
  -OEChem-11232109023D

 26 26  0     0  0  0  0  0  0999 V2000
   -1.9522    1.6673   -0.4048 C   0  0  0  0  0  0  0  0  0  0  0  0
   -0.6145    1.4969    0.3086 C   0  0  0  0  0  0  0  0  0  0  0  0
   -2.6904    0.3432   -0.2349 C   0  0  0  0  0  0  0  0  0  0  0  0
   -0.4400    0.0079    0.3504 C   0  0  0  0  0  0  0  0  0  0  0  0
   -1.5838   -0.6277    0.0515 C   0  0  0  0  0  0  0  0  0  0  0  0
    0.8830   -0.5618    0.7257 C   0  0  0  0  0  0  0  0  0  0  0  0
   -1.8652   -2.0887    0.0075 C   0  0  0  0  0  0  0  0  0  0  0  0
    1.7602   -0.7960   -0.4693 C   0  0  0  0  0  0  0  0  0  0  0  0
    2.9501   -0.2040   -0.6498 C   0  0  0  0  0  0  0  0  0  0  0  0
    3.5528    0.7629    0.3150 C   0  0  0  0  0  0  0  0  0  0  0  0
   -0.6497    1.9043    1.3248 H   0  0  0  0  0  0  0  0  0  0  0  0
    0.1859    1.9958   -0.2463 H   0  0  0  0  0  0  0  0  0  0  0  0
   -1.7800    1.8603   -1.4719 H   0  0  0  0  0  0  0  0  0  0  0  0
   -2.5252    2.5136   -0.0125 H   0  0  0  0  0  0  0  0  0  0  0  0
   -3.2418    0.0871   -1.1449 H   0  0  0  0  0  0  0  0  0  0  0  0
   -3.3904    0.3813    0.6067 H   0  0  0  0  0  0  0  0  0  0  0  0
    0.7387   -1.5322    1.2175 H   0  0  0  0  0  0  0  0  0  0  0  0
    1.3443    0.0634    1.4963 H   0  0  0  0  0  0  0  0  0  0  0  0
   -2.6337   -2.3492    0.7421 H   0  0  0  0  0  0  0  0  0  0  0  0
   -0.9781   -2.6908    0.2221 H   0  0  0  0  0  0  0  0  0  0  0  0
   -2.2256   -2.3744   -0.9859 H   0  0  0  0  0  0  0  0  0  0  0  0
    1.4127   -1.5023   -1.2196 H   0  0  0  0  0  0  0  0  0  0  0  0
    3.5289   -0.4531   -1.5349 H   0  0  0  0  0  0  0  0  0  0  0  0
    4.0822    0.2328    1.1121 H   0  0  0  0  0  0  0  0  0  0  0  0
    4.2826    1.3876   -0.2117 H   0  0  0  0  0  0  0  0  0  0  0  0
    2.8184    1.4471    0.7488 H   0  0  0  0  0  0  0  0  0  0  0  0
  1  2  1  0  0  0  0
  1  3  1  0  0  0  0
  1 13  1  0  0  0  0
  1 14  1  0  0  0  0
  2  4  1  0  0  0  0
  2 11  1  0  0  0  0
  2 12  1  0  0  0  0
  3  5  1  0  0  0  0
  3 15  1  0  0  0  0
  3 16  1  0  0  0  0
  4  5  2  0  0  0  0
  4  6  1  0  0  0  0
  5  7  1  0  0  0  0
  6  8  1  0  0  0  0
  6 17  1  0  0  0  0
  6 18  1  0  0  0  0
  7 19  1  0  0  0  0
  7 20  1  0  0  0  0
  7 21  1  0  0  0  0
  8  9  2  0  0  0  0
  8 22  1  0  0  0  0
  9 10  1  0  0  0  0
  9 23  1  0  0  0  0
 10 24  1  0  0  0  0
 10 25  1  0  0  0  0
 10 26  1  0  0  0  0
M  END
> <PUBCHEM_COMPOUND_CID>
92043553

> <PUBCHEM_CONFORMER_RMSD>
0.6

> <PUBCHEM_CONFORMER_DIVERSEORDER>
2
13
12
5
9
10
7
6
3
8
1
11
4

> <PUBCHEM_MMFF94_PARTIAL_CHARGES>
11
10 0.14
2 0.14
22 0.15
23 0.15
3 0.14
4 -0.28
5 -0.28
6 0.28
7 0.14
8 -0.29
9 -0.29

> <PUBCHEM_EFFECTIVE_ROTOR_COUNT>
2.6

> <PUBCHEM_PHARMACOPHORE_FEATURES>
2
1 10 hydrophobe
5 1 2 3 4 5 rings

> <PUBCHEM_HEAVY_ATOM_COUNT>
10

> <PUBCHEM_ATOM_DEF_STEREO_COUNT>
0

> <PUBCHEM_ATOM_UDEF_STEREO_COUNT>
0

> <PUBCHEM_BOND_DEF_STEREO_COUNT>
1

> <PUBCHEM_BOND_UDEF_STEREO_COUNT>
0

> <PUBCHEM_ISOTOPIC_ATOM_COUNT>
0

> <PUBCHEM_COMPONENT_COUNT>
1

> <PUBCHEM_CACTVS_TAUTO_COUNT>
1

> <PUBCHEM_CONFORMER_ID>
057C792100000002

> <PUBCHEM_MMFF94_ENERGY>
7.0602

> <PUBCHEM_FEATURE_SELFOVERLAP>
10.148

> <PUBCHEM_SHAPE_FINGERPRINT>
12716758 59 18338519642541143770
12897270 3 18343024380561486678
12932764 1 18336839614886571226
13024252 1 16732991933318961531
14390081 3 18336264552903803008
15775835 57 17968381126361697540
16945 1 18408603656183137001
19422 9 12103853375624907204
19973954 147 18412551998486567124
20201158 50 18202282494117443030
20653085 51 18117572729347142992
20871998 184 18272094936998968207
21040471 1 18193827146652331075
21061003 4 17417540227640861258
21293036 1 18410566271896693901
22213442 358 18125720333799796303
23402539 116 18339909446597211029
23552423 10 18188209934713655013
23557571 272 18271538592657301102
2748010 2 18050274062479302889
3248919 1 17489309638105703546
369184 2 13262406573919249053
528716 315 18339369650970796326
6333449 129 18412825789270666181

> <PUBCHEM_SHAPE_MULTIPOLES>
205.8
4.9
1.76
0.79
3.9
0.16
0
-0.55
0.55
-1.23
0.03
0.19
0
0.29

> <PUBCHEM_SHAPE_SELFOVERLAP>
403.589

> <PUBCHEM_SHAPE_VOLUME>
123.9

> <PUBCHEM_COORDINATE_TYPE>
2
5
10

$$$$
