92083
  -OEChem-11232109083D

 22 21  0     0  0  0  0  0  0999 V2000
   -5.3609   -0.3095   -0.1051 O   0  0  0  0  0  0  0  0  0  0  0  0
    4.4127    0.2542   -0.3421 C   0  0  0  0  0  0  0  0  0  0  0  0
    3.0524    0.5706    0.2075 C   0  0  0  0  0  0  0  0  0  0  0  0
    5.0038   -0.9818    0.3178 C   0  0  0  0  0  0  0  0  0  0  0  0
    1.9124    0.0846   -0.3060 C   0  0  0  0  0  0  0  0  0  0  0  0
    0.6064    0.4015    0.2282 C   0  0  0  0  0  0  0  0  0  0  0  0
   -0.5323   -0.0860   -0.2875 C   0  0  0  0  0  0  0  0  0  0  0  0
   -1.8390    0.2307    0.2472 C   0  0  0  0  0  0  0  0  0  0  0  0
   -2.9714   -0.2596   -0.2726 C   0  0  0  0  0  0  0  0  0  0  0  0
   -4.2842    0.0953    0.3126 C   0  0  0  0  0  0  0  0  0  0  0  0
    4.3588    0.0967   -1.4260 H   0  0  0  0  0  0  0  0  0  0  0  0
    5.0716    1.1156   -0.1840 H   0  0  0  0  0  0  0  0  0  0  0  0
    3.0228    1.2224    1.0778 H   0  0  0  0  0  0  0  0  0  0  0  0
    6.0019   -1.1831   -0.0843 H   0  0  0  0  0  0  0  0  0  0  0  0
    5.0969   -0.8462    1.4007 H   0  0  0  0  0  0  0  0  0  0  0  0
    4.3829   -1.8658    0.1366 H   0  0  0  0  0  0  0  0  0  0  0  0
    1.9541   -0.5745   -1.1696 H   0  0  0  0  0  0  0  0  0  0  0  0
    0.5723    1.0672    1.0879 H   0  0  0  0  0  0  0  0  0  0  0  0
   -0.4982   -0.7520   -1.1470 H   0  0  0  0  0  0  0  0  0  0  0  0
   -1.8760    0.8959    1.1064 H   0  0  0  0  0  0  0  0  0  0  0  0
   -2.9790   -0.9257   -1.1287 H   0  0  0  0  0  0  0  0  0  0  0  0
   -4.2399    0.7737    1.1819 H   0  0  0  0  0  0  0  0  0  0  0  0
  1 10  2  0  0  0  0
  2  3  1  0  0  0  0
  2  4  1  0  0  0  0
  2 11  1  0  0  0  0
  2 12  1  0  0  0  0
  3  5  2  3  0  0  0
  3 13  1  0  0  0  0
  4 14  1  0  0  0  0
  4 15  1  0  0  0  0
  4 16  1  0  0  0  0
  5  6  1  0  0  0  0
  5 17  1  0  0  0  0
  6  7  2  3  0  0  0
  6 18  1  0  0  0  0
  7  8  1  0  0  0  0
  7 19  1  0  0  0  0
  8  9  2  3  0  0  0
  8 20  1  0  0  0  0
  9 10  1  0  0  0  0
  9 21  1  0  0  0  0
 10 22  1  0  0  0  0
M  END
> <PUBCHEM_COMPOUND_CID>
92083

> <PUBCHEM_CONFORMER_RMSD>
0.6

> <PUBCHEM_CONFORMER_DIVERSEORDER>
1
3
6
12
4
8
11
7
5
9
10
2

> <PUBCHEM_MMFF94_PARTIAL_CHARGES>
16
1 -0.57
10 0.5
13 0.15
17 0.15
18 0.15
19 0.15
2 0.14
20 0.15
21 0.15
22 0.06
3 -0.29
5 -0.15
6 -0.15
7 -0.15
8 -0.15
9 -0.14

> <PUBCHEM_EFFECTIVE_ROTOR_COUNT>
4

> <PUBCHEM_PHARMACOPHORE_FEATURES>
2
1 1 acceptor
1 4 hydrophobe

> <PUBCHEM_HEAVY_ATOM_COUNT>
10

> <PUBCHEM_ATOM_DEF_STEREO_COUNT>
0

> <PUBCHEM_ATOM_UDEF_STEREO_COUNT>
0

> <PUBCHEM_BOND_DEF_STEREO_COUNT>
0

> <PUBCHEM_BOND_UDEF_STEREO_COUNT>
3

> <PUBCHEM_ISOTOPIC_ATOM_COUNT>
0

> <PUBCHEM_COMPONENT_COUNT>
1

> <PUBCHEM_CACTVS_TAUTO_COUNT>
1

> <PUBCHEM_CONFORMER_ID>
000167B300000001

> <PUBCHEM_MMFF94_ENERGY>
5.1649

> <PUBCHEM_FEATURE_SELFOVERLAP>
10.148

> <PUBCHEM_SHAPE_FINGERPRINT>
11062470 55 10303815384384410548
11401426 45 14979954765968680521
114248 4 8790882982180893205
13690532 89 18408604755815999650
14123238 8 8502653705519677771
14251718 22 10737293449973264609
15242439 84 16515405178945993521
17834076 25 18410294717793211893
20645477 70 17967811601293634482
20719005 15 18411138034621787980
20767249 13 17489586762058828341
20828058 44 16917065585629650991
22485316 2 18410291441049793082
23402539 116 17846774101269385229
23402655 69 12468625145537239707
366044 4 17632859737039233855
42 15 18413671296796333342
42788 4 18408323289255247717
522135 26 18114183038774055564
57483677 66 18261109690339769955

> <PUBCHEM_SHAPE_MULTIPOLES>
199.93
11.83
0.78
0.68
2.5
0.06
0
2.16
0.37
-0.58
0.04
-0.09
0
-0.22

> <PUBCHEM_SHAPE_SELFOVERLAP>
372.444

> <PUBCHEM_SHAPE_VOLUME>
124.4

> <PUBCHEM_COORDINATE_TYPE>
2
5
10

$$$$
