92292
  -OEChem-11232109063D

 37 38  0     1  0  0  0  0  0999 V2000
   -2.3148   -1.9405   -0.0407 O   0  0  0  0  0  0  0  0  0  0  0  0
    1.3008    1.1143    0.0695 C   0  0  0  0  0  0  0  0  0  0  0  0
    1.7856   -0.3313    0.4261 C   0  0  1  0  0  0  0  0  0  0  0  0
    0.6335   -1.3122    0.0179 C   0  0  0  0  0  0  0  0  0  0  0  0
   -0.2006    0.9223    0.0753 C   0  0  0  0  0  0  0  0  0  0  0  0
   -0.5446   -0.3736    0.0505 C   0  0  0  0  0  0  0  0  0  0  0  0
   -1.1667    2.0655    0.0708 C   0  0  0  0  0  0  0  0  0  0  0  0
    1.7767    1.6252   -1.2993 C   0  0  0  0  0  0  0  0  0  0  0  0
    1.7564    2.1032    1.1558 C   0  0  0  0  0  0  0  0  0  0  0  0
    3.1765   -0.7035   -0.0859 C   0  0  0  0  0  0  0  0  0  0  0  0
    0.5310   -2.4382    1.0622 C   0  0  0  0  0  0  0  0  0  0  0  0
    0.7876   -1.9346   -1.3772 C   0  0  0  0  0  0  0  0  0  0  0  0
   -1.9741   -0.7638    0.0529 C   0  0  0  0  0  0  0  0  0  0  0  0
   -2.5475    1.6314   -0.4189 C   0  0  0  0  0  0  0  0  0  0  0  0
   -2.9998    0.3359    0.2409 C   0  0  0  0  0  0  0  0  0  0  0  0
    1.8648   -0.3754    1.5250 H   0  0  0  0  0  0  0  0  0  0  0  0
   -1.2428    2.4728    1.0858 H   0  0  0  0  0  0  0  0  0  0  0  0
   -0.8077    2.8720   -0.5773 H   0  0  0  0  0  0  0  0  0  0  0  0
    2.8670    1.7275   -1.3300 H   0  0  0  0  0  0  0  0  0  0  0  0
    1.4787    0.9622   -2.1165 H   0  0  0  0  0  0  0  0  0  0  0  0
    1.3599    2.6144   -1.5213 H   0  0  0  0  0  0  0  0  0  0  0  0
    1.3653    1.8288    2.1426 H   0  0  0  0  0  0  0  0  0  0  0  0
    2.8494    2.1321    1.2264 H   0  0  0  0  0  0  0  0  0  0  0  0
    1.4125    3.1215    0.9406 H   0  0  0  0  0  0  0  0  0  0  0  0
    3.9263   -0.0006    0.2918 H   0  0  0  0  0  0  0  0  0  0  0  0
    3.4598   -1.7032    0.2596 H   0  0  0  0  0  0  0  0  0  0  0  0
    3.2346   -0.6993   -1.1782 H   0  0  0  0  0  0  0  0  0  0  0  0
    1.4792   -2.9808    1.1464 H   0  0  0  0  0  0  0  0  0  0  0  0
    0.2815   -2.0467    2.0553 H   0  0  0  0  0  0  0  0  0  0  0  0
   -0.2373   -3.1720    0.7964 H   0  0  0  0  0  0  0  0  0  0  0  0
    1.6637   -2.5905   -1.4270 H   0  0  0  0  0  0  0  0  0  0  0  0
   -0.0846   -2.5467   -1.6355 H   0  0  0  0  0  0  0  0  0  0  0  0
    0.8903   -1.1787   -2.1610 H   0  0  0  0  0  0  0  0  0  0  0  0
   -3.2770    2.4261   -0.2265 H   0  0  0  0  0  0  0  0  0  0  0  0
   -2.5123    1.4880   -1.5072 H   0  0  0  0  0  0  0  0  0  0  0  0
   -3.9446    0.0127   -0.2094 H   0  0  0  0  0  0  0  0  0  0  0  0
   -3.1596    0.4767    1.3155 H   0  0  0  0  0  0  0  0  0  0  0  0
  1 13  2  0  0  0  0
  2  3  1  0  0  0  0
  2  5  1  0  0  0  0
  2  8  1  0  0  0  0
  2  9  1  0  0  0  0
  3  4  1  0  0  0  0
  3 10  1  0  0  0  0
  3 16  1  0  0  0  0
  4  6  1  0  0  0  0
  4 11  1  0  0  0  0
  4 12  1  0  0  0  0
  5  6  2  0  0  0  0
  5  7  1  0  0  0  0
  6 13  1  0  0  0  0
  7 14  1  0  0  0  0
  7 17  1  0  0  0  0
  7 18  1  0  0  0  0
  8 19  1  0  0  0  0
  8 20  1  0  0  0  0
  8 21  1  0  0  0  0
  9 22  1  0  0  0  0
  9 23  1  0  0  0  0
  9 24  1  0  0  0  0
 10 25  1  0  0  0  0
 10 26  1  0  0  0  0
 10 27  1  0  0  0  0
 11 28  1  0  0  0  0
 11 29  1  0  0  0  0
 11 30  1  0  0  0  0
 12 31  1  0  0  0  0
 12 32  1  0  0  0  0
 12 33  1  0  0  0  0
 13 15  1  0  0  0  0
 14 15  1  0  0  0  0
 14 34  1  0  0  0  0
 14 35  1  0  0  0  0
 15 36  1  0  0  0  0
 15 37  1  0  0  0  0
M  END
> <PUBCHEM_COMPOUND_CID>
92292

> <PUBCHEM_CONFORMER_RMSD>
0.6

> <PUBCHEM_CONFORMER_DIVERSEORDER>
2
3
1

> <PUBCHEM_MMFF94_PARTIAL_CHARGES>
8
1 -0.57
13 0.49
15 0.06
2 0.14
4 0.14
5 -0.28
6 -0.12
7 0.14

> <PUBCHEM_EFFECTIVE_ROTOR_COUNT>
1.2

> <PUBCHEM_PHARMACOPHORE_FEATURES>
5
1 1 acceptor
3 2 8 9 hydrophobe
3 4 11 12 hydrophobe
5 2 3 4 5 6 rings
6 5 6 7 13 14 15 rings

> <PUBCHEM_HEAVY_ATOM_COUNT>
15

> <PUBCHEM_ATOM_DEF_STEREO_COUNT>
0

> <PUBCHEM_ATOM_UDEF_STEREO_COUNT>
1

> <PUBCHEM_BOND_DEF_STEREO_COUNT>
0

> <PUBCHEM_BOND_UDEF_STEREO_COUNT>
0

> <PUBCHEM_ISOTOPIC_ATOM_COUNT>
0

> <PUBCHEM_COMPONENT_COUNT>
1

> <PUBCHEM_CACTVS_TAUTO_COUNT>
5

> <PUBCHEM_CONFORMER_ID>
0001688400000002

> <PUBCHEM_MMFF94_ENERGY>
38.351

> <PUBCHEM_FEATURE_SELFOVERLAP>
25.433

> <PUBCHEM_SHAPE_FINGERPRINT>
10967382 1 18266176132535387985
11132069 177 18339072680094960050
12382932 28 18052532175604867192
12423570 1 11213693026295036192
12524768 44 17910111309251547575
13132413 78 18190177880455232854
13140716 1 18410854395187399393
13172582 1 17474953121323596897
13380535 76 18268703927053119703
15775835 57 18341620372605499185
16945 1 18266162968323514784
17990270 104 18127407861000011271
20511035 2 18338234985183369378
20588541 1 18196652895603874740
21501502 16 18410016567332223925
22344851 341 18120383059719548202
22721475 48 18338524019181312145
22802520 49 17691717861805842476
2334 1 18266457805112333697
23419403 2 15821754032258192371
23552423 10 18333169462020633541
23559900 14 18270964536767914686
2748010 2 18339357594976575173
2897 32 18192432957149603777
5084963 1 18410577326746790352
5255222 1 18263915553735021417
53812653 166 18339073766247075224
63268167 104 18121497951630466449
7364860 26 18272367525345068472
81228 2 17475229575261940475

> <PUBCHEM_SHAPE_MULTIPOLES>
302.82
3.84
2.75
1.05
1.18
0.24
-0.14
-0.38
-0.09
-0.24
0.17
-0.48
0.01
0.15

> <PUBCHEM_SHAPE_SELFOVERLAP>
633.177

> <PUBCHEM_SHAPE_VOLUME>
176.6

> <PUBCHEM_COORDINATE_TYPE>
2
5
10

$$$$
