92573
  -OEChem-11232108413D

 33 32  0     0  0  0  0  0  0999 V2000
    0.2236   -0.9194   -0.2742 O   0  0  0  0  0  0  0  0  0  0  0  0
   -1.5559   -1.9853    0.7357 O   0  0  0  0  0  0  0  0  0  0  0  0
   -3.3170    0.1143    0.0655 C   0  0  0  0  0  0  0  0  0  0  0  0
   -1.8409    0.1863   -0.3219 C   0  0  0  0  0  0  0  0  0  0  0  0
   -4.0646    1.3790   -0.3547 C   0  0  0  0  0  0  0  0  0  0  0  0
   -1.0783   -1.0413    0.1215 C   0  0  0  0  0  0  0  0  0  0  0  0
    2.4919   -1.7375   -0.4261 C   0  0  0  0  0  0  0  0  0  0  0  0
    1.0796   -2.0114    0.0770 C   0  0  0  0  0  0  0  0  0  0  0  0
   -5.5253    1.3274    0.0634 C   0  0  0  0  0  0  0  0  0  0  0  0
    3.0751   -0.5021    0.1999 C   0  0  0  0  0  0  0  0  0  0  0  0
    3.4698    0.5733   -0.4978 C   0  0  0  0  0  0  0  0  0  0  0  0
    4.0599    1.8025    0.1272 C   0  0  0  0  0  0  0  0  0  0  0  0
    2.9822    2.8142    0.4846 C   0  0  0  0  0  0  0  0  0  0  0  0
   -3.4066   -0.0228    1.1506 H   0  0  0  0  0  0  0  0  0  0  0  0
   -3.7801   -0.7638   -0.4018 H   0  0  0  0  0  0  0  0  0  0  0  0
   -1.7492    0.2729   -1.4103 H   0  0  0  0  0  0  0  0  0  0  0  0
   -1.3770    1.0615    0.1469 H   0  0  0  0  0  0  0  0  0  0  0  0
   -4.0043    1.5028   -1.4423 H   0  0  0  0  0  0  0  0  0  0  0  0
   -3.5934    2.2588    0.0988 H   0  0  0  0  0  0  0  0  0  0  0  0
    3.1369   -2.5914   -0.1909 H   0  0  0  0  0  0  0  0  0  0  0  0
    2.4710   -1.6326   -1.5177 H   0  0  0  0  0  0  0  0  0  0  0  0
    1.0801   -2.1385    1.1665 H   0  0  0  0  0  0  0  0  0  0  0  0
    0.7010   -2.9292   -0.3879 H   0  0  0  0  0  0  0  0  0  0  0  0
   -6.0352    0.4751   -0.3970 H   0  0  0  0  0  0  0  0  0  0  0  0
   -5.6196    1.2382    1.1504 H   0  0  0  0  0  0  0  0  0  0  0  0
   -6.0413    2.2408   -0.2484 H   0  0  0  0  0  0  0  0  0  0  0  0
    3.1915   -0.5075    1.2810 H   0  0  0  0  0  0  0  0  0  0  0  0
    3.3501    0.5852   -1.5782 H   0  0  0  0  0  0  0  0  0  0  0  0
    4.7778    2.2491   -0.5699 H   0  0  0  0  0  0  0  0  0  0  0  0
    4.6235    1.5380    1.0300 H   0  0  0  0  0  0  0  0  0  0  0  0
    3.4353    3.7091    0.9229 H   0  0  0  0  0  0  0  0  0  0  0  0
    2.2751    2.4028    1.2130 H   0  0  0  0  0  0  0  0  0  0  0  0
    2.4177    3.1212   -0.4025 H   0  0  0  0  0  0  0  0  0  0  0  0
  1  6  1  0  0  0  0
  1  8  1  0  0  0  0
  2  6  2  0  0  0  0
  3  4  1  0  0  0  0
  3  5  1  0  0  0  0
  3 14  1  0  0  0  0
  3 15  1  0  0  0  0
  4  6  1  0  0  0  0
  4 16  1  0  0  0  0
  4 17  1  0  0  0  0
  5  9  1  0  0  0  0
  5 18  1  0  0  0  0
  5 19  1  0  0  0  0
  7  8  1  0  0  0  0
  7 10  1  0  0  0  0
  7 20  1  0  0  0  0
  7 21  1  0  0  0  0
  8 22  1  0  0  0  0
  8 23  1  0  0  0  0
  9 24  1  0  0  0  0
  9 25  1  0  0  0  0
  9 26  1  0  0  0  0
 10 11  2  3  0  0  0
 10 27  1  0  0  0  0
 11 12  1  0  0  0  0
 11 28  1  0  0  0  0
 12 13  1  0  0  0  0
 12 29  1  0  0  0  0
 12 30  1  0  0  0  0
 13 31  1  0  0  0  0
 13 32  1  0  0  0  0
 13 33  1  0  0  0  0
M  END
> <PUBCHEM_COMPOUND_CID>
92573

> <PUBCHEM_CONFORMER_RMSD>
0.8

> <PUBCHEM_CONFORMER_DIVERSEORDER>
1
229
105
195
95
156
51
28
6
150
24
3
136
22
25
234
211
55
29
257
20
9
241
39
228
67
146
18
127
12
40
251
149
200
212
128
47
119
131
118
44
194
65
236
153
221
239
27
108
137
148
129
7
49
216
34
16
255
165
190
180
227
104
135
240
57
80
99
10
138
218
259
43
214
175
181
123
85
209
166
52
256
170
193
66
32
157
184
171
126
224
188
168
60
142
163
217
121
21
235
213
243
93
14
151
2
130
152
252
169
97
113
117
223
96
82
155
144
247
245
238
140
179
250
48
90
210
262
208
161
122
73
139
81
226
50
162
83
204
186
4
248
249
244
94
5
164
45
207
107
91
59
174
79
205
100
242
106
147
159
101
263
172
84
261
102
111
26
92
58
35
70
178
220
133
198
110
103
41
86
63
125
196
206
233
74
215
54
88
258
254
76
89
8
173
114
260
78
246
69
19
71
112
158
202
197
77
231
230
222
232
191
37
13
124
141
182
53
134
177
56
145
72
17
183
120
30
98
87
143
237
64
219
62
42
11
203
38
176
185
132
116
68
187
109
192
15
253
160
154
75
23
46
225
33
189
61
201
167
199
31
115
36

> <PUBCHEM_MMFF94_PARTIAL_CHARGES>
11
1 -0.43
10 -0.29
11 -0.29
12 0.14
2 -0.57
27 0.15
28 0.15
4 0.06
6 0.66
7 0.14
8 0.28

> <PUBCHEM_EFFECTIVE_ROTOR_COUNT>
8

> <PUBCHEM_PHARMACOPHORE_FEATURES>
3
1 13 hydrophobe
1 2 acceptor
1 9 hydrophobe

> <PUBCHEM_HEAVY_ATOM_COUNT>
13

> <PUBCHEM_ATOM_DEF_STEREO_COUNT>
0

> <PUBCHEM_ATOM_UDEF_STEREO_COUNT>
0

> <PUBCHEM_BOND_DEF_STEREO_COUNT>
0

> <PUBCHEM_BOND_UDEF_STEREO_COUNT>
1

> <PUBCHEM_ISOTOPIC_ATOM_COUNT>
0

> <PUBCHEM_COMPONENT_COUNT>
1

> <PUBCHEM_CACTVS_TAUTO_COUNT>
1

> <PUBCHEM_CONFORMER_ID>
0001699D00000001

> <PUBCHEM_MMFF94_ENERGY>
1.1062

> <PUBCHEM_FEATURE_SELFOVERLAP>
15.223

> <PUBCHEM_SHAPE_FINGERPRINT>
10608611 8 18409168826624178814
122479 349 18335702770928382611
12596602 18 14490486274001264429
14123255 52 18411698824317539660
1420 369 8646770006145407817
14251732 16 18410859880788953443
14251764 75 18268441311051966121
14252887 29 12685092553959980466
14774955 27 18408600383397225173
17834072 32 18411419548274446272
17834072 33 18272081691794126317
1798214 55 18340204206393499808
20449540 30 18129389356967905595
20621476 13 18271241750230538128
20621476 91 17096391552181768137
20645477 56 18261116257666330415
20871998 22 9583514317622726931
212847 35 18260833661724001300
22224240 67 11170783649356745062
22959321 54 18341334417956760904
22959321 60 18187372046961118139
23559900 14 18341331081052567002
43658 37 18271801362866977056
449060 62 18340769256084405191
474 4 18412543189181368177

> <PUBCHEM_SHAPE_MULTIPOLES>
255.8
10.15
2.77
0.72
9.23
0.72
0
7.65
0.25
-2.33
-0.38
-0.06
-0.01
0.64

> <PUBCHEM_SHAPE_SELFOVERLAP>
469.713

> <PUBCHEM_SHAPE_VOLUME>
162.1

> <PUBCHEM_COORDINATE_TYPE>
2
5
10

$$$$
