92739
  -OEChem-11232108563D

 23 22  0     1  0  0  0  0  0999 V2000
    0.0030   -0.0016    0.3835 O   0  0  0  0  0  0  0  0  0  0  0  0
   -2.5301   -1.1116    0.5964 O   0  0  0  0  0  0  0  0  0  0  0  0
    2.5310    1.1109    0.5966 O   0  0  0  0  0  0  0  0  0  0  0  0
   -1.0667    0.4952   -0.4196 C   0  0  1  0  0  0  0  0  0  0  0  0
    1.0650   -0.4942   -0.4187 C   0  0  1  0  0  0  0  0  0  0  0  0
   -2.3721    0.2789    0.3352 C   0  0  0  0  0  0  0  0  0  0  0  0
    2.3722   -0.2792    0.3333 C   0  0  0  0  0  0  0  0  0  0  0  0
   -0.8253    1.9701   -0.7027 C   0  0  0  0  0  0  0  0  0  0  0  0
    0.8230   -1.9685   -0.7039 C   0  0  0  0  0  0  0  0  0  0  0  0
   -1.1318   -0.0604   -1.3639 H   0  0  0  0  0  0  0  0  0  0  0  0
    1.1305    0.0615   -1.3630 H   0  0  0  0  0  0  0  0  0  0  0  0
   -2.3685    0.7970    1.2999 H   0  0  0  0  0  0  0  0  0  0  0  0
   -3.2326    0.6222   -0.2466 H   0  0  0  0  0  0  0  0  0  0  0  0
    2.3713   -0.7992    1.2971 H   0  0  0  0  0  0  0  0  0  0  0  0
    3.2314   -0.6214   -0.2513 H   0  0  0  0  0  0  0  0  0  0  0  0
    0.1035    2.1215   -1.2620 H   0  0  0  0  0  0  0  0  0  0  0  0
   -1.6473    2.4007   -1.2829 H   0  0  0  0  0  0  0  0  0  0  0  0
   -0.7232    2.5350    0.2306 H   0  0  0  0  0  0  0  0  0  0  0  0
   -0.1067   -2.1193   -1.2619 H   0  0  0  0  0  0  0  0  0  0  0  0
    1.6441   -2.3981   -1.2862 H   0  0  0  0  0  0  0  0  0  0  0  0
    0.7227   -2.5352    0.2286 H   0  0  0  0  0  0  0  0  0  0  0  0
   -1.7535   -1.4030    1.1042 H   0  0  0  0  0  0  0  0  0  0  0  0
    1.7555    1.4014    1.1066 H   0  0  0  0  0  0  0  0  0  0  0  0
  1  4  1  0  0  0  0
  1  5  1  0  0  0  0
  2  6  1  0  0  0  0
  2 22  1  0  0  0  0
  3  7  1  0  0  0  0
  3 23  1  0  0  0  0
  4  6  1  0  0  0  0
  4  8  1  0  0  0  0
  4 10  1  0  0  0  0
  5  7  1  0  0  0  0
  5  9  1  0  0  0  0
  5 11  1  0  0  0  0
  6 12  1  0  0  0  0
  6 13  1  0  0  0  0
  7 14  1  0  0  0  0
  7 15  1  0  0  0  0
  8 16  1  0  0  0  0
  8 17  1  0  0  0  0
  8 18  1  0  0  0  0
  9 19  1  0  0  0  0
  9 20  1  0  0  0  0
  9 21  1  0  0  0  0
M  END
> <PUBCHEM_COMPOUND_CID>
92739

> <PUBCHEM_CONFORMER_RMSD>
0.6

> <PUBCHEM_CONFORMER_DIVERSEORDER>
1
38
22
6
41
44
33
25
5
42
37
9
39
29
27
40
35
3
4
15
23
34
21
43
24
19
8
30
36
28
16
17
2
31
11
32
10
26
7
13
12
20
18
14

> <PUBCHEM_MMFF94_PARTIAL_CHARGES>
9
1 -0.56
2 -0.68
22 0.4
23 0.4
3 -0.68
4 0.28
5 0.28
6 0.28
7 0.28

> <PUBCHEM_EFFECTIVE_ROTOR_COUNT>
4

> <PUBCHEM_PHARMACOPHORE_FEATURES>
5
1 1 acceptor
1 2 acceptor
1 2 donor
1 3 acceptor
1 3 donor

> <PUBCHEM_HEAVY_ATOM_COUNT>
9

> <PUBCHEM_ATOM_DEF_STEREO_COUNT>
0

> <PUBCHEM_ATOM_UDEF_STEREO_COUNT>
2

> <PUBCHEM_BOND_DEF_STEREO_COUNT>
0

> <PUBCHEM_BOND_UDEF_STEREO_COUNT>
0

> <PUBCHEM_ISOTOPIC_ATOM_COUNT>
0

> <PUBCHEM_COMPONENT_COUNT>
1

> <PUBCHEM_CACTVS_TAUTO_COUNT>
1

> <PUBCHEM_CONFORMER_ID>
00016A4300000001

> <PUBCHEM_MMFF94_ENERGY>
16.7744

> <PUBCHEM_FEATURE_SELFOVERLAP>
25.381

> <PUBCHEM_SHAPE_FINGERPRINT>
10857977 72 18334292110547646961
12897270 3 18410575046013661212
12932741 1 18194683665856856461
18380122 1 18410575076073144335
19973954 147 18265894653385386604
20711978 78 17559397937729601615
21040471 1 18201147854152613026
23211744 41 18336538331167172594
23552423 10 17824275812194135007
24536 1 17841983395361603816
29004967 10 18412551989558801611
5084963 1 18334017159863551144
528862 383 17608936726140213821

> <PUBCHEM_SHAPE_MULTIPOLES>
167.61
3.56
1.81
0.85
0
0
-0.06
0
0.9
0
-0.36
0
0
0.72

> <PUBCHEM_SHAPE_SELFOVERLAP>
302.841

> <PUBCHEM_SHAPE_VOLUME>
109.1

> <PUBCHEM_COORDINATE_TYPE>
2
5
10

$$$$
