929336
  -OEChem-11232109073D

 35 36  0     1  0  0  0  0  0999 V2000
    2.1356   -0.4800   -0.2553 O   0  0  0  0  0  0  0  0  0  0  0  0
    3.8109    0.5652    0.9438 O   0  0  0  0  0  0  0  0  0  0  0  0
   -1.4960    1.1494    0.1486 C   0  0  0  0  0  0  0  0  0  0  0  0
   -2.7591    0.4105   -0.4001 C   0  0  2  0  0  0  0  0  0  0  0  0
   -1.2497   -0.1777    0.9447 C   0  0  1  0  0  0  0  0  0  0  0  0
   -2.8134   -0.2572    1.0120 C   0  0  0  0  0  0  0  0  0  0  0  0
   -2.4313   -0.5868   -1.5253 C   0  0  0  0  0  0  0  0  0  0  0  0
   -0.6608   -1.2583    0.0836 C   0  0  0  0  0  0  0  0  0  0  0  0
   -1.8064    2.3541    1.0249 C   0  0  0  0  0  0  0  0  0  0  0  0
   -0.4437    1.5657   -0.8594 C   0  0  0  0  0  0  0  0  0  0  0  0
   -1.2530   -1.4373   -1.1121 C   0  0  0  0  0  0  0  0  0  0  0  0
    0.5049   -2.0388    0.5877 C   0  0  0  0  0  0  0  0  0  0  0  0
    1.6993   -1.1524    0.9188 C   0  0  0  0  0  0  0  0  0  0  0  0
    3.2082    0.3541   -0.0998 C   0  0  0  0  0  0  0  0  0  0  0  0
    3.5545    0.9895   -1.4122 C   0  0  0  0  0  0  0  0  0  0  0  0
   -3.6165    1.0464   -0.6433 H   0  0  0  0  0  0  0  0  0  0  0  0
   -0.7690   -0.0730    1.9215 H   0  0  0  0  0  0  0  0  0  0  0  0
   -3.2444   -1.2648    1.0444 H   0  0  0  0  0  0  0  0  0  0  0  0
   -3.3010    0.3104    1.8099 H   0  0  0  0  0  0  0  0  0  0  0  0
   -2.2056   -0.0570   -2.4568 H   0  0  0  0  0  0  0  0  0  0  0  0
   -3.2956   -1.2336   -1.7123 H   0  0  0  0  0  0  0  0  0  0  0  0
   -2.5592    2.1831    1.7977 H   0  0  0  0  0  0  0  0  0  0  0  0
   -0.9031    2.6964    1.5438 H   0  0  0  0  0  0  0  0  0  0  0  0
   -2.1716    3.1902    0.4166 H   0  0  0  0  0  0  0  0  0  0  0  0
   -0.1155    0.7904   -1.5533 H   0  0  0  0  0  0  0  0  0  0  0  0
   -0.8130    2.3910   -1.4802 H   0  0  0  0  0  0  0  0  0  0  0  0
    0.4570    1.9257   -0.3485 H   0  0  0  0  0  0  0  0  0  0  0  0
   -0.8981   -2.1934   -1.8046 H   0  0  0  0  0  0  0  0  0  0  0  0
    0.8092   -2.7779   -0.1639 H   0  0  0  0  0  0  0  0  0  0  0  0
    0.2053   -2.5955    1.4832 H   0  0  0  0  0  0  0  0  0  0  0  0
    2.5147   -1.7846    1.2908 H   0  0  0  0  0  0  0  0  0  0  0  0
    1.4535   -0.4207    1.6965 H   0  0  0  0  0  0  0  0  0  0  0  0
    2.7128    1.5882   -1.7688 H   0  0  0  0  0  0  0  0  0  0  0  0
    3.8133    0.2169   -2.1407 H   0  0  0  0  0  0  0  0  0  0  0  0
    4.4186    1.6467   -1.2801 H   0  0  0  0  0  0  0  0  0  0  0  0
  1 13  1  0  0  0  0
  1 14  1  0  0  0  0
  2 14  2  0  0  0  0
  3  4  1  0  0  0  0
  3  5  1  0  0  0  0
  3  9  1  0  0  0  0
  3 10  1  0  0  0  0
  4  6  1  0  0  0  0
  4  7  1  0  0  0  0
  4 16  1  0  0  0  0
  5  6  1  0  0  0  0
  5  8  1  0  0  0  0
  5 17  1  0  0  0  0
  6 18  1  0  0  0  0
  6 19  1  0  0  0  0
  7 11  1  0  0  0  0
  7 20  1  0  0  0  0
  7 21  1  0  0  0  0
  8 11  2  0  0  0  0
  8 12  1  0  0  0  0
  9 22  1  0  0  0  0
  9 23  1  0  0  0  0
  9 24  1  0  0  0  0
 10 25  1  0  0  0  0
 10 26  1  0  0  0  0
 10 27  1  0  0  0  0
 11 28  1  0  0  0  0
 12 13  1  0  0  0  0
 12 29  1  0  0  0  0
 12 30  1  0  0  0  0
 13 31  1  0  0  0  0
 13 32  1  0  0  0  0
 14 15  1  0  0  0  0
 15 33  1  0  0  0  0
 15 34  1  0  0  0  0
 15 35  1  0  0  0  0
M  END
> <PUBCHEM_COMPOUND_CID>
929336

> <PUBCHEM_CONFORMER_RMSD>
0.6

> <PUBCHEM_CONFORMER_DIVERSEORDER>
1
37
15
26
38
30
29
35
40
52
19
16
21
24
10
4
60
14
61
32
11
12
56
43
59
39
34
17
20
25
9
63
33
7
51
6
36
62
47
22
31
8
54
2
44
41
3
13
53
45
42
58
23
5
46
50
18
48
57
49
55
27
28

> <PUBCHEM_MMFF94_PARTIAL_CHARGES>
11
1 -0.43
11 -0.29
12 0.14
13 0.28
14 0.66
15 0.06
2 -0.57
28 0.15
5 0.12
7 0.14
8 -0.25

> <PUBCHEM_EFFECTIVE_ROTOR_COUNT>
4.6

> <PUBCHEM_PHARMACOPHORE_FEATURES>
3
1 2 acceptor
3 3 9 10 hydrophobe
7 3 4 5 6 7 8 11 rings

> <PUBCHEM_HEAVY_ATOM_COUNT>
15

> <PUBCHEM_ATOM_DEF_STEREO_COUNT>
2

> <PUBCHEM_ATOM_UDEF_STEREO_COUNT>
0

> <PUBCHEM_BOND_DEF_STEREO_COUNT>
0

> <PUBCHEM_BOND_UDEF_STEREO_COUNT>
0

> <PUBCHEM_ISOTOPIC_ATOM_COUNT>
0

> <PUBCHEM_COMPONENT_COUNT>
1

> <PUBCHEM_CACTVS_TAUTO_COUNT>
1

> <PUBCHEM_CONFORMER_ID>
000E2E3800000001

> <PUBCHEM_MMFF94_ENERGY>
37.4699

> <PUBCHEM_FEATURE_SELFOVERLAP>
15.223

> <PUBCHEM_SHAPE_FINGERPRINT>
12173636 292 17916863517568948997
13024252 1 12324237269971832575
13764800 53 18188223090356881538
14142880 1 18337104562449857809
14250199 8 18336827472829506694
14787075 74 18043262433953532627
15775835 57 18342173336912626314
16945 1 18059559275035887147
18186145 218 17131839742098555858
20449540 30 18113622304601752925
20525323 117 18411411778699576995
22802520 49 18129399158399961446
23236772 104 18413668019768012955
23557571 272 17701534245810477198
353137 74 18337096913033235307
369184 2 16878223052672224379
537710 114 18335980943386297157

> <PUBCHEM_SHAPE_MULTIPOLES>
296.95
5.47
2.03
1.39
5.64
0.28
-0.26
1.58
-0.36
-0.43
0.25
-0.18
0.04
-0.86

> <PUBCHEM_SHAPE_SELFOVERLAP>
613.902

> <PUBCHEM_SHAPE_VOLUME>
172.5

> <PUBCHEM_COORDINATE_TYPE>
2
5
10

$$$$
