93019
  -OEChem-11232109083D

 24 24  0     1  0  0  0  0  0999 V2000
    1.2498   -0.7432   -1.3592 O   0  0  0  0  0  0  0  0  0  0  0  0
    0.9328   -0.0135    0.8936 C   0  0  1  0  0  0  0  0  0  0  0  0
    0.1744    1.3129    0.8815 C   0  0  0  0  0  0  0  0  0  0  0  0
   -0.0059   -1.2049    1.1094 C   0  0  0  0  0  0  0  0  0  0  0  0
   -0.9785    1.3279   -0.1284 C   0  0  0  0  0  0  0  0  0  0  0  0
   -1.7750    0.0493   -0.1617 C   0  0  0  0  0  0  0  0  0  0  0  0
   -1.3306   -1.0811    0.4130 C   0  0  0  0  0  0  0  0  0  0  0  0
    1.7184   -0.1694   -0.3774 C   0  0  0  0  0  0  0  0  0  0  0  0
   -3.0910    0.1092   -0.8794 C   0  0  0  0  0  0  0  0  0  0  0  0
    3.1058    0.4130   -0.3912 C   0  0  0  0  0  0  0  0  0  0  0  0
    1.6575   -0.0105    1.7180 H   0  0  0  0  0  0  0  0  0  0  0  0
    0.8482    2.1517    0.6703 H   0  0  0  0  0  0  0  0  0  0  0  0
   -0.2354    1.4893    1.8851 H   0  0  0  0  0  0  0  0  0  0  0  0
   -0.2093   -1.3099    2.1827 H   0  0  0  0  0  0  0  0  0  0  0  0
    0.4783   -2.1362    0.7905 H   0  0  0  0  0  0  0  0  0  0  0  0
   -0.5845    1.5200   -1.1341 H   0  0  0  0  0  0  0  0  0  0  0  0
   -1.6382    2.1686    0.1189 H   0  0  0  0  0  0  0  0  0  0  0  0
   -1.9429   -1.9788    0.3812 H   0  0  0  0  0  0  0  0  0  0  0  0
   -2.9403    0.4075   -1.9220 H   0  0  0  0  0  0  0  0  0  0  0  0
   -3.7522    0.8388   -0.4008 H   0  0  0  0  0  0  0  0  0  0  0  0
   -3.6059   -0.8572   -0.8804 H   0  0  0  0  0  0  0  0  0  0  0  0
    3.0617    1.4875   -0.1993 H   0  0  0  0  0  0  0  0  0  0  0  0
    3.7197   -0.0814    0.3658 H   0  0  0  0  0  0  0  0  0  0  0  0
    3.5610    0.2513   -1.3724 H   0  0  0  0  0  0  0  0  0  0  0  0
  1  8  2  0  0  0  0
  2  3  1  0  0  0  0
  2  4  1  0  0  0  0
  2  8  1  0  0  0  0
  2 11  1  0  0  0  0
  3  5  1  0  0  0  0
  3 12  1  0  0  0  0
  3 13  1  0  0  0  0
  4  7  1  0  0  0  0
  4 14  1  0  0  0  0
  4 15  1  0  0  0  0
  5  6  1  0  0  0  0
  5 16  1  0  0  0  0
  5 17  1  0  0  0  0
  6  7  2  0  0  0  0
  6  9  1  0  0  0  0
  7 18  1  0  0  0  0
  8 10  1  0  0  0  0
  9 19  1  0  0  0  0
  9 20  1  0  0  0  0
  9 21  1  0  0  0  0
 10 22  1  0  0  0  0
 10 23  1  0  0  0  0
 10 24  1  0  0  0  0
M  END
> <PUBCHEM_COMPOUND_CID>
93019

> <PUBCHEM_CONFORMER_RMSD>
0.4

> <PUBCHEM_CONFORMER_DIVERSEORDER>
1
3
4
2
5
7
6

> <PUBCHEM_MMFF94_PARTIAL_CHARGES>
10
1 -0.57
10 0.06
18 0.15
2 0.06
4 0.14
5 0.14
6 -0.28
7 -0.29
8 0.45
9 0.14

> <PUBCHEM_EFFECTIVE_ROTOR_COUNT>
1.8

> <PUBCHEM_PHARMACOPHORE_FEATURES>
2
1 1 acceptor
6 2 3 4 5 6 7 rings

> <PUBCHEM_HEAVY_ATOM_COUNT>
10

> <PUBCHEM_ATOM_DEF_STEREO_COUNT>
0

> <PUBCHEM_ATOM_UDEF_STEREO_COUNT>
1

> <PUBCHEM_BOND_DEF_STEREO_COUNT>
0

> <PUBCHEM_BOND_UDEF_STEREO_COUNT>
0

> <PUBCHEM_ISOTOPIC_ATOM_COUNT>
0

> <PUBCHEM_COMPONENT_COUNT>
1

> <PUBCHEM_CACTVS_TAUTO_COUNT>
3

> <PUBCHEM_CONFORMER_ID>
00016B5B00000001

> <PUBCHEM_MMFF94_ENERGY>
7.0475

> <PUBCHEM_FEATURE_SELFOVERLAP>
10.148

> <PUBCHEM_SHAPE_FINGERPRINT>
12138202 97 18334859471496038182
12423570 1 8351162121476766472
12716758 59 18260269667914321954
12897270 3 18202005429977258436
13024252 1 16878522239940881562
14128692 85 16056592213759013405
15775835 57 16732985336001333756
16945 1 18412262852265521920
18534176 82 18262812868279219158
20201158 50 18272653450029230270
20653085 51 16515700956401124926
21040471 1 18040981952221325627
21293036 1 18334572473375637309
23211744 25 18410570656557396625
23235685 24 17822003212043459973
23402539 116 18336816541952855804
23552423 10 17899967236612150579
2748010 2 17975686504997008833
29004967 10 17561088011729241754
369184 2 17895205432135350888
4369600 1 18411127026810707529
5084963 1 13407644440708195522
528886 8 17775846804709803799

> <PUBCHEM_SHAPE_MULTIPOLES>
199.93
3.7
1.3
1.15
0.1
0.07
0.07
-0.6
1.44
-0.25
-0.32
0.19
0.03
0.11

> <PUBCHEM_SHAPE_SELFOVERLAP>
396.406

> <PUBCHEM_SHAPE_VOLUME>
117.7

> <PUBCHEM_COORDINATE_TYPE>
2
5
10

$$$$
