93073
  -OEChem-11232109203D

 24 25  0     1  0  0  0  0  0999 V2000
    1.0354   -1.9640    0.3951 O   0  0  0  0  0  0  0  0  0  0  0  0
   -0.4067    1.1486   -0.4365 C   0  0  1  0  0  0  0  0  0  0  0  0
    0.9238    0.4518    0.0076 C   0  0  0  0  0  0  0  0  0  0  0  0
   -1.0494   -0.9991   -0.4119 C   0  0  2  0  0  0  0  0  0  0  0  0
   -1.0127    0.1409   -1.4269 C   0  0  0  0  0  0  0  0  0  0  0  0
   -1.4866    1.1023    0.6692 C   0  0  0  0  0  0  0  0  0  0  0  0
   -1.8545   -0.3940    0.7434 C   0  0  0  0  0  0  0  0  0  0  0  0
    0.4026   -0.9831    0.0343 C   0  0  0  0  0  0  0  0  0  0  0  0
    1.3699    0.8883    1.4056 C   0  0  0  0  0  0  0  0  0  0  0  0
    2.0783    0.6083   -0.9799 C   0  0  0  0  0  0  0  0  0  0  0  0
   -0.2565    2.1512   -0.8448 H   0  0  0  0  0  0  0  0  0  0  0  0
   -1.3823   -1.9669   -0.7851 H   0  0  0  0  0  0  0  0  0  0  0  0
   -0.3714   -0.0640   -2.2892 H   0  0  0  0  0  0  0  0  0  0  0  0
   -2.0080    0.4298   -1.7820 H   0  0  0  0  0  0  0  0  0  0  0  0
   -2.3662    1.6785    0.3557 H   0  0  0  0  0  0  0  0  0  0  0  0
   -1.1682    1.5090    1.6316 H   0  0  0  0  0  0  0  0  0  0  0  0
   -1.5834   -0.8245    1.7132 H   0  0  0  0  0  0  0  0  0  0  0  0
   -2.9310   -0.5262    0.5912 H   0  0  0  0  0  0  0  0  0  0  0  0
    0.7091    0.5190    2.1965 H   0  0  0  0  0  0  0  0  0  0  0  0
    2.3630    0.4861    1.6393 H   0  0  0  0  0  0  0  0  0  0  0  0
    1.4290    1.9795    1.4769 H   0  0  0  0  0  0  0  0  0  0  0  0
    2.3622    1.6609   -1.0837 H   0  0  0  0  0  0  0  0  0  0  0  0
    2.9602    0.0490   -0.6474 H   0  0  0  0  0  0  0  0  0  0  0  0
    1.8255    0.2287   -1.9749 H   0  0  0  0  0  0  0  0  0  0  0  0
  1  8  2  0  0  0  0
  2  3  1  0  0  0  0
  2  5  1  0  0  0  0
  2  6  1  0  0  0  0
  2 11  1  0  0  0  0
  3  8  1  0  0  0  0
  3  9  1  0  0  0  0
  3 10  1  0  0  0  0
  4  5  1  0  0  0  0
  4  7  1  0  0  0  0
  4  8  1  0  0  0  0
  4 12  1  0  0  0  0
  5 13  1  0  0  0  0
  5 14  1  0  0  0  0
  6  7  1  0  0  0  0
  6 15  1  0  0  0  0
  6 16  1  0  0  0  0
  7 17  1  0  0  0  0
  7 18  1  0  0  0  0
  9 19  1  0  0  0  0
  9 20  1  0  0  0  0
  9 21  1  0  0  0  0
 10 22  1  0  0  0  0
 10 23  1  0  0  0  0
 10 24  1  0  0  0  0
M  END
> <PUBCHEM_COMPOUND_CID>
93073

> <PUBCHEM_CONFORMER_RMSD>
0.4

> <PUBCHEM_CONFORMER_DIVERSEORDER>
1
2

> <PUBCHEM_MMFF94_PARTIAL_CHARGES>
4
1 -0.57
3 0.06
4 0.06
8 0.45

> <PUBCHEM_EFFECTIVE_ROTOR_COUNT>
0.8

> <PUBCHEM_PHARMACOPHORE_FEATURES>
3
1 1 acceptor
3 3 9 10 hydrophobe
7 2 3 4 5 6 7 8 rings

> <PUBCHEM_HEAVY_ATOM_COUNT>
10

> <PUBCHEM_ATOM_DEF_STEREO_COUNT>
0

> <PUBCHEM_ATOM_UDEF_STEREO_COUNT>
2

> <PUBCHEM_BOND_DEF_STEREO_COUNT>
0

> <PUBCHEM_BOND_UDEF_STEREO_COUNT>
0

> <PUBCHEM_ISOTOPIC_ATOM_COUNT>
0

> <PUBCHEM_COMPONENT_COUNT>
1

> <PUBCHEM_CACTVS_TAUTO_COUNT>
1

> <PUBCHEM_CONFORMER_ID>
00016B9100000001

> <PUBCHEM_MMFF94_ENERGY>
34.7958

> <PUBCHEM_FEATURE_SELFOVERLAP>
15.223

> <PUBCHEM_SHAPE_FINGERPRINT>
12423570 1 8566637628782846605
13024252 1 13552592006615832940
137420 1 15970826797857010350
15557651 10 17988100935903842705
16945 1 17844557523907371021
21040471 1 18412544284371784649
24536 1 17968646125569430621
29004967 10 14852172904633045653
369184 2 17983547952874274336
5084963 1 17986693625544908705
68250623 7 17769976451941738439

> <PUBCHEM_SHAPE_MULTIPOLES>
199.93
2.25
1.51
1.27
0.32
0.42
0.1
-0.28
-0.06
0.08
-0.29
0.13
-0.19
-0.06

> <PUBCHEM_SHAPE_SELFOVERLAP>
426.286

> <PUBCHEM_SHAPE_VOLUME>
117.6

> <PUBCHEM_COORDINATE_TYPE>
2
5
10

$$$$
