93236
  -OEChem-11232109463D

 14 13  0     0  0  0  0  0  0999 V2000
    2.2078   -0.5112   -0.4328 S   0  0  0  0  0  0  0  0  0  0  0  0
   -0.7524   -1.0612   -0.2473 S   0  0  0  0  0  0  0  0  0  0  0  0
   -2.3749   -0.2252    0.7052 S   0  0  0  0  0  0  0  0  0  0  0  0
    0.6209    0.0096    0.2767 C   0  0  0  0  0  0  0  0  0  0  0  0
    3.2450    0.8169    0.2234 C   0  0  0  0  0  0  0  0  0  0  0  0
   -2.9464    0.9711   -0.5252 C   0  0  0  0  0  0  0  0  0  0  0  0
    0.6993   -0.0204    1.3672 H   0  0  0  0  0  0  0  0  0  0  0  0
    0.4121    1.0331   -0.0478 H   0  0  0  0  0  0  0  0  0  0  0  0
    2.9024    1.7865   -0.1473 H   0  0  0  0  0  0  0  0  0  0  0  0
    4.2764    0.6642   -0.1053 H   0  0  0  0  0  0  0  0  0  0  0  0
    3.2242    0.8116    1.3163 H   0  0  0  0  0  0  0  0  0  0  0  0
   -3.2295    0.4649   -1.4520 H   0  0  0  0  0  0  0  0  0  0  0  0
   -2.1719    1.7154   -0.7285 H   0  0  0  0  0  0  0  0  0  0  0  0
   -3.8264    1.4900   -0.1353 H   0  0  0  0  0  0  0  0  0  0  0  0
  1  4  1  0  0  0  0
  1  5  1  0  0  0  0
  2  3  1  0  0  0  0
  2  4  1  0  0  0  0
  3  6  1  0  0  0  0
  4  7  1  0  0  0  0
  4  8  1  0  0  0  0
  5  9  1  0  0  0  0
  5 10  1  0  0  0  0
  5 11  1  0  0  0  0
  6 12  1  0  0  0  0
  6 13  1  0  0  0  0
  6 14  1  0  0  0  0
M  END
> <PUBCHEM_COMPOUND_CID>
93236

> <PUBCHEM_CONFORMER_RMSD>
0.4

> <PUBCHEM_CONFORMER_DIVERSEORDER>
2
8
36
16
14
10
15
34
31
29
7
30
1
9
11
13
18
5
35
20
6
27
33
23
26
19
32
22
21
17
25
12
28
24
4
3

> <PUBCHEM_MMFF94_PARTIAL_CHARGES>
6
1 -0.46
2 -0.23
3 -0.23
4 0.46
5 0.23
6 0.23

> <PUBCHEM_EFFECTIVE_ROTOR_COUNT>
3

> <PUBCHEM_PHARMACOPHORE_FEATURES>
3
1 5 hydrophobe
1 6 hydrophobe
4 1 2 3 4 hydrophobe

> <PUBCHEM_HEAVY_ATOM_COUNT>
6

> <PUBCHEM_ATOM_DEF_STEREO_COUNT>
0

> <PUBCHEM_ATOM_UDEF_STEREO_COUNT>
0

> <PUBCHEM_BOND_DEF_STEREO_COUNT>
0

> <PUBCHEM_BOND_UDEF_STEREO_COUNT>
0

> <PUBCHEM_ISOTOPIC_ATOM_COUNT>
0

> <PUBCHEM_COMPONENT_COUNT>
1

> <PUBCHEM_CACTVS_TAUTO_COUNT>
1

> <PUBCHEM_CONFORMER_ID>
00016C3400000002

> <PUBCHEM_MMFF94_ENERGY>
-0.8201

> <PUBCHEM_FEATURE_SELFOVERLAP>
15.223

> <PUBCHEM_SHAPE_FINGERPRINT>
12932764 1 18410301315011002898
14325111 11 18411983550573995815
14390081 3 18408040693397502853
18342897 55 16487253309362217500
20211469 26 11530478947901868059
20651381 32 18201440233697970846
20765181 27 18201433714116970280
21293036 1 17989481935693593213
3248919 1 17275389789439724150
5460574 1 11458420262673390530

> <PUBCHEM_SHAPE_MULTIPOLES>
135.03
5.65
1.16
0.85
1.16
0.02
-0.02
-2.03
0.05
-0.14
0.12
-0.27
-0.01
0.46

> <PUBCHEM_SHAPE_SELFOVERLAP>
193.912

> <PUBCHEM_SHAPE_VOLUME>
104.1

> <PUBCHEM_COORDINATE_TYPE>
2
5
10

$$$$
