93596
  -OEChem-11232108483D

 23 23  0     0  0  0  0  0  0999 V2000
   -2.9744   -0.2191    0.5604 S   0  0  0  0  0  0  0  0  0  0  0  0
   -1.1789    1.4829   -0.1891 N   0  0  0  0  0  0  0  0  0  0  0  0
    1.7769    0.0969    0.2264 C   0  0  0  0  0  0  0  0  0  0  0  0
    0.7234    0.1021   -0.8857 C   0  0  0  0  0  0  0  0  0  0  0  0
    3.1910    0.0133   -0.3481 C   0  0  0  0  0  0  0  0  0  0  0  0
   -0.6713    0.2193   -0.3473 C   0  0  0  0  0  0  0  0  0  0  0  0
   -1.4745   -0.8307   -0.0032 C   0  0  0  0  0  0  0  0  0  0  0  0
    4.2417    0.0480    0.7503 C   0  0  0  0  0  0  0  0  0  0  0  0
   -1.2349   -2.2869   -0.0516 C   0  0  0  0  0  0  0  0  0  0  0  0
   -2.3990    1.3744    0.2880 C   0  0  0  0  0  0  0  0  0  0  0  0
    1.6029   -0.7493    0.9027 H   0  0  0  0  0  0  0  0  0  0  0  0
    1.6784    1.0078    0.8306 H   0  0  0  0  0  0  0  0  0  0  0  0
    0.8146   -0.8077   -1.4917 H   0  0  0  0  0  0  0  0  0  0  0  0
    0.9112    0.9435   -1.5648 H   0  0  0  0  0  0  0  0  0  0  0  0
    3.3033   -0.9112   -0.9263 H   0  0  0  0  0  0  0  0  0  0  0  0
    3.3643    0.8495   -1.0354 H   0  0  0  0  0  0  0  0  0  0  0  0
    4.1161   -0.7931    1.4396 H   0  0  0  0  0  0  0  0  0  0  0  0
    4.1774    0.9770    1.3257 H   0  0  0  0  0  0  0  0  0  0  0  0
    5.2450   -0.0145    0.3172 H   0  0  0  0  0  0  0  0  0  0  0  0
   -1.4687   -2.6771   -1.0477 H   0  0  0  0  0  0  0  0  0  0  0  0
   -0.1877   -2.5212    0.1656 H   0  0  0  0  0  0  0  0  0  0  0  0
   -1.8444   -2.8307    0.6780 H   0  0  0  0  0  0  0  0  0  0  0  0
   -3.0127    2.2393    0.4998 H   0  0  0  0  0  0  0  0  0  0  0  0
  1  7  1  0  0  0  0
  1 10  1  0  0  0  0
  2  6  1  0  0  0  0
  2 10  2  0  0  0  0
  3  4  1  0  0  0  0
  3  5  1  0  0  0  0
  3 11  1  0  0  0  0
  3 12  1  0  0  0  0
  4  6  1  0  0  0  0
  4 13  1  0  0  0  0
  4 14  1  0  0  0  0
  5  8  1  0  0  0  0
  5 15  1  0  0  0  0
  5 16  1  0  0  0  0
  6  7  2  0  0  0  0
  7  9  1  0  0  0  0
  8 17  1  0  0  0  0
  8 18  1  0  0  0  0
  8 19  1  0  0  0  0
  9 20  1  0  0  0  0
  9 21  1  0  0  0  0
  9 22  1  0  0  0  0
 10 23  1  0  0  0  0
M  END
> <PUBCHEM_COMPOUND_CID>
93596

> <PUBCHEM_CONFORMER_RMSD>
0.6

> <PUBCHEM_CONFORMER_DIVERSEORDER>
1
10
2
11
9
4
7
8
3
5
6

> <PUBCHEM_MMFF94_PARTIAL_CHARGES>
8
1 -0.08
10 0.23
2 -0.57
23 0.15
4 0.18
6 0.05
7 -0.14
9 0.18

> <PUBCHEM_EFFECTIVE_ROTOR_COUNT>
3

> <PUBCHEM_PHARMACOPHORE_FEATURES>
3
1 2 acceptor
1 8 hydrophobe
5 1 2 6 7 10 rings

> <PUBCHEM_HEAVY_ATOM_COUNT>
10

> <PUBCHEM_ATOM_DEF_STEREO_COUNT>
0

> <PUBCHEM_ATOM_UDEF_STEREO_COUNT>
0

> <PUBCHEM_BOND_DEF_STEREO_COUNT>
0

> <PUBCHEM_BOND_UDEF_STEREO_COUNT>
0

> <PUBCHEM_ISOTOPIC_ATOM_COUNT>
0

> <PUBCHEM_COMPONENT_COUNT>
1

> <PUBCHEM_CACTVS_TAUTO_COUNT>
1

> <PUBCHEM_CONFORMER_ID>
00016D9C00000001

> <PUBCHEM_MMFF94_ENERGY>
2.4659

> <PUBCHEM_FEATURE_SELFOVERLAP>
15.223

> <PUBCHEM_SHAPE_FINGERPRINT>
12251169 10 18409729582123540492
12932764 1 17603860105472633244
13024252 1 14418130708312185805
14325111 11 18339645533826253860
15669948 3 18337679727527087470
20528008 55 18341888619072206672
20645464 45 18131355189184445438
20653085 51 14548198484054591281
20871998 184 18271814582850518223
23402539 116 18272360989011375903
23552423 10 17612043963464800341
2748010 2 18120953706481119951
3086196 2 18269829990010795250
3248919 1 18411978074944173068
369184 2 18201720643512106173
6333449 129 18342173375525185887
75552 356 18410013268718232310

> <PUBCHEM_SHAPE_MULTIPOLES>
204.66
5.98
1.58
0.83
6.72
0.62
0
-0.44
-1.7
-1.43
0.02
0.22
-0.01
-0.03

> <PUBCHEM_SHAPE_SELFOVERLAP>
389.606

> <PUBCHEM_SHAPE_VOLUME>
128.9

> <PUBCHEM_COORDINATE_TYPE>
2
5
10

$$$$
