93838
  -OEChem-11232109433D

 44 45  0     1  0  0  0  0  0999 V2000
    1.7665    0.2836    0.7068 O   0  0  0  0  0  0  0  0  0  0  0  0
   -1.6699    0.2364   -0.6294 O   0  0  0  0  0  0  0  0  0  0  0  0
   -3.1730    1.3475    0.7283 O   0  0  0  0  0  0  0  0  0  0  0  0
    0.7261   -0.1147   -0.2315 C   0  0  1  0  0  0  0  0  0  0  0  0
    0.7070   -1.7044   -0.2777 C   0  0  0  0  0  0  0  0  0  0  0  0
   -0.6257    0.4805    0.3190 C   0  0  2  0  0  0  0  0  0  0  0  0
    1.1342    0.5154   -1.5850 C   0  0  0  0  0  0  0  0  0  0  0  0
    0.2400   -2.2704    1.0912 C   0  0  0  0  0  0  0  0  0  0  0  0
   -1.0204   -0.1732    1.6586 C   0  0  0  0  0  0  0  0  0  0  0  0
   -1.0810   -1.6917    1.5772 C   0  0  0  0  0  0  0  0  0  0  0  0
    2.1673    1.5604   -1.2276 C   0  0  0  0  0  0  0  0  0  0  0  0
    2.8142    0.9638    0.0016 C   0  0  1  0  0  0  0  0  0  0  0  0
   -0.1997   -2.2660   -1.3981 C   0  0  0  0  0  0  0  0  0  0  0  0
    2.1231   -2.2950   -0.5176 C   0  0  0  0  0  0  0  0  0  0  0  0
   -0.5924    2.0034    0.5349 C   0  0  0  0  0  0  0  0  0  0  0  0
    3.4602    1.9931    0.9090 C   0  0  0  0  0  0  0  0  0  0  0  0
   -2.8946    0.7296   -0.2905 C   0  0  0  0  0  0  0  0  0  0  0  0
   -3.8818    0.4016   -1.3692 C   0  0  0  0  0  0  0  0  0  0  0  0
    0.2934    0.9390   -2.1429 H   0  0  0  0  0  0  0  0  0  0  0  0
    1.6045   -0.2122   -2.2528 H   0  0  0  0  0  0  0  0  0  0  0  0
    1.0051   -2.0699    1.8534 H   0  0  0  0  0  0  0  0  0  0  0  0
    0.1476   -3.3629    1.0366 H   0  0  0  0  0  0  0  0  0  0  0  0
   -1.9641    0.1671    2.0876 H   0  0  0  0  0  0  0  0  0  0  0  0
   -0.2659    0.0951    2.4120 H   0  0  0  0  0  0  0  0  0  0  0  0
   -1.9047   -2.0067    0.9275 H   0  0  0  0  0  0  0  0  0  0  0  0
   -1.3025   -2.0969    2.5719 H   0  0  0  0  0  0  0  0  0  0  0  0
    2.8846    1.7430   -2.0333 H   0  0  0  0  0  0  0  0  0  0  0  0
    1.6778    2.5132   -1.0016 H   0  0  0  0  0  0  0  0  0  0  0  0
    3.5630    0.2183   -0.2893 H   0  0  0  0  0  0  0  0  0  0  0  0
   -1.2534   -2.0161   -1.2640 H   0  0  0  0  0  0  0  0  0  0  0  0
   -0.1455   -3.3612   -1.4270 H   0  0  0  0  0  0  0  0  0  0  0  0
    0.1042   -1.9075   -2.3863 H   0  0  0  0  0  0  0  0  0  0  0  0
    2.5484   -1.9782   -1.4740 H   0  0  0  0  0  0  0  0  0  0  0  0
    2.0912   -3.3914   -0.5309 H   0  0  0  0  0  0  0  0  0  0  0  0
    2.8227   -2.0108    0.2754 H   0  0  0  0  0  0  0  0  0  0  0  0
   -0.7256    2.5506   -0.4051 H   0  0  0  0  0  0  0  0  0  0  0  0
   -1.3314    2.3848    1.2447 H   0  0  0  0  0  0  0  0  0  0  0  0
    0.3591    2.3169    0.9745 H   0  0  0  0  0  0  0  0  0  0  0  0
    4.2600    2.5304    0.3908 H   0  0  0  0  0  0  0  0  0  0  0  0
    2.7269    2.7209    1.2718 H   0  0  0  0  0  0  0  0  0  0  0  0
    3.8813    1.5068    1.7954 H   0  0  0  0  0  0  0  0  0  0  0  0
   -3.9609   -0.6826   -1.4812 H   0  0  0  0  0  0  0  0  0  0  0  0
   -3.5709    0.8646   -2.3091 H   0  0  0  0  0  0  0  0  0  0  0  0
   -4.8641    0.7962   -1.0942 H   0  0  0  0  0  0  0  0  0  0  0  0
  1  4  1  0  0  0  0
  1 12  1  0  0  0  0
  2  6  1  0  0  0  0
  2 17  1  0  0  0  0
  3 17  2  0  0  0  0
  4  5  1  0  0  0  0
  4  6  1  0  0  0  0
  4  7  1  0  0  0  0
  5  8  1  0  0  0  0
  5 13  1  0  0  0  0
  5 14  1  0  0  0  0
  6  9  1  0  0  0  0
  6 15  1  0  0  0  0
  7 11  1  0  0  0  0
  7 19  1  0  0  0  0
  7 20  1  0  0  0  0
  8 10  1  0  0  0  0
  8 21  1  0  0  0  0
  8 22  1  0  0  0  0
  9 10  1  0  0  0  0
  9 23  1  0  0  0  0
  9 24  1  0  0  0  0
 10 25  1  0  0  0  0
 10 26  1  0  0  0  0
 11 12  1  0  0  0  0
 11 27  1  0  0  0  0
 11 28  1  0  0  0  0
 12 16  1  0  0  0  0
 12 29  1  0  0  0  0
 13 30  1  0  0  0  0
 13 31  1  0  0  0  0
 13 32  1  0  0  0  0
 14 33  1  0  0  0  0
 14 34  1  0  0  0  0
 14 35  1  0  0  0  0
 15 36  1  0  0  0  0
 15 37  1  0  0  0  0
 15 38  1  0  0  0  0
 16 39  1  0  0  0  0
 16 40  1  0  0  0  0
 16 41  1  0  0  0  0
 17 18  1  0  0  0  0
 18 42  1  0  0  0  0
 18 43  1  0  0  0  0
 18 44  1  0  0  0  0
M  END
> <PUBCHEM_COMPOUND_CID>
93838

> <PUBCHEM_CONFORMER_RMSD>
0.6

> <PUBCHEM_CONFORMER_DIVERSEORDER>
5
16
7
18
4
17
12
9
1
14
8
3
13
6
10
2
11
15

> <PUBCHEM_MMFF94_PARTIAL_CHARGES>
8
1 -0.56
12 0.28
17 0.66
18 0.06
2 -0.43
3 -0.57
4 0.28
6 0.28

> <PUBCHEM_EFFECTIVE_ROTOR_COUNT>
3.8

> <PUBCHEM_PHARMACOPHORE_FEATURES>
5
1 1 acceptor
1 3 acceptor
3 5 13 14 hydrophobe
5 1 4 7 11 12 rings
6 4 5 6 8 9 10 rings

> <PUBCHEM_HEAVY_ATOM_COUNT>
18

> <PUBCHEM_ATOM_DEF_STEREO_COUNT>
0

> <PUBCHEM_ATOM_UDEF_STEREO_COUNT>
3

> <PUBCHEM_BOND_DEF_STEREO_COUNT>
0

> <PUBCHEM_BOND_UDEF_STEREO_COUNT>
0

> <PUBCHEM_ISOTOPIC_ATOM_COUNT>
0

> <PUBCHEM_COMPONENT_COUNT>
1

> <PUBCHEM_CACTVS_TAUTO_COUNT>
1

> <PUBCHEM_CONFORMER_ID>
00016E8E00000005

> <PUBCHEM_MMFF94_ENERGY>
67.8408

> <PUBCHEM_FEATURE_SELFOVERLAP>
25.378

> <PUBCHEM_SHAPE_FINGERPRINT>
10764073 3 13846955161979259877
10863032 1 18341325669113679574
10948715 1 18337379526197501824
11680611 10 16444486760564179562
11680986 33 18335710425024490218
12138202 97 18040724713560488675
12423570 1 10364241047185507610
13024252 1 17753877617721043490
13134695 92 18047468920311672006
13380535 76 18334292097551871242
13571099 52 18260261954026405629
14181834 199 18339640023504799070
14614273 12 17974594659553670147
14817 1 13444347010822128446
15061688 2 18335126635467736004
15490181 8 18262252065646045452
15852999 172 18260548943572254386
15881359 60 18049456021180134715
15906896 17 18044372970314081082
16945 1 18120367666414457899
18186145 218 18041284245052323245
20511035 2 18335720333350433830
20645477 70 18268137670555038685
21524375 3 18337101349819088508
21947302 44 18261685778655762591
23419403 2 18048917093105595706
23493267 7 17896337963603768648
23557571 272 16516258332035803989
23559900 14 18117587075614514134
2748010 2 18190767342957163114
4340502 62 18187079560347467877
474 4 18260833674525111189
54040823 5 17917982902405808877
5845 1 9021241706392770014
7364860 26 18127412246056144812
7832392 63 17477204929648433169
81228 2 17407976838885626994

> <PUBCHEM_SHAPE_MULTIPOLES>
352.82
4.64
2.66
1.59
1.53
1.26
0
-3.16
-0.64
-1.01
0.13
0.31
0.27
0.42

> <PUBCHEM_SHAPE_SELFOVERLAP>
726.366

> <PUBCHEM_SHAPE_VOLUME>
203.4

> <PUBCHEM_COORDINATE_TYPE>
2
5
10

$$$$
