93831
  -OEChem-11232109463D

 39 38  0     0  0  0  0  0  0999 V2000
   -4.1356    0.3310    0.1790 O   0  0  0  0  0  0  0  0  0  0  0  0
   -2.9793   -1.6489   -0.0982 O   0  0  0  0  0  0  0  0  0  0  0  0
    3.2600    0.4899    0.0099 C   0  0  0  0  0  0  0  0  0  0  0  0
    2.0028   -0.3805   -0.0571 C   0  0  0  0  0  0  0  0  0  0  0  0
    4.5281   -0.3618   -0.0798 C   0  0  0  0  0  0  0  0  0  0  0  0
    0.7337    0.4649    0.0645 C   0  0  0  0  0  0  0  0  0  0  0  0
    5.8191    0.4566    0.0136 C   0  0  0  0  0  0  0  0  0  0  0  0
   -0.5211   -0.4076    0.0315 C   0  0  0  0  0  0  0  0  0  0  0  0
    7.0863   -0.3969   -0.0509 C   0  0  0  0  0  0  0  0  0  0  0  0
   -1.7864    0.4371    0.1193 C   0  0  0  0  0  0  0  0  0  0  0  0
    8.3380    0.4671   -0.0271 C   0  0  0  0  0  0  0  0  0  0  0  0
   -3.0143   -0.4335    0.0445 C   0  0  0  0  0  0  0  0  0  0  0  0
   -5.3754   -0.3829    0.1464 C   0  0  0  0  0  0  0  0  0  0  0  0
   -6.4946    0.5919    0.3053 C   0  0  0  0  0  0  0  0  0  0  0  0
   -7.4614    0.7736   -0.6010 C   0  0  0  0  0  0  0  0  0  0  0  0
    3.2492    1.2199   -0.8082 H   0  0  0  0  0  0  0  0  0  0  0  0
    3.2666    1.0558    0.9493 H   0  0  0  0  0  0  0  0  0  0  0  0
    1.9880   -0.9338   -1.0039 H   0  0  0  0  0  0  0  0  0  0  0  0
    2.0271   -1.1221    0.7507 H   0  0  0  0  0  0  0  0  0  0  0  0
    4.5241   -0.9187   -1.0249 H   0  0  0  0  0  0  0  0  0  0  0  0
    4.5207   -1.1064    0.7261 H   0  0  0  0  0  0  0  0  0  0  0  0
    0.7583    1.0346    1.0014 H   0  0  0  0  0  0  0  0  0  0  0  0
    0.6993    1.1923   -0.7556 H   0  0  0  0  0  0  0  0  0  0  0  0
    5.8166    1.0275    0.9505 H   0  0  0  0  0  0  0  0  0  0  0  0
    5.8333    1.1895   -0.8027 H   0  0  0  0  0  0  0  0  0  0  0  0
   -0.4934   -1.1250    0.8614 H   0  0  0  0  0  0  0  0  0  0  0  0
   -0.5304   -0.9964   -0.8946 H   0  0  0  0  0  0  0  0  0  0  0  0
    7.1080   -1.0934    0.7951 H   0  0  0  0  0  0  0  0  0  0  0  0
    7.0824   -0.9982   -0.9673 H   0  0  0  0  0  0  0  0  0  0  0  0
   -1.8212    1.1516   -0.7103 H   0  0  0  0  0  0  0  0  0  0  0  0
   -1.8049    0.9843    1.0681 H   0  0  0  0  0  0  0  0  0  0  0  0
    8.3602    1.1501   -0.8823 H   0  0  0  0  0  0  0  0  0  0  0  0
    9.2329   -0.1616   -0.0716 H   0  0  0  0  0  0  0  0  0  0  0  0
    8.3861    1.0625    0.8902 H   0  0  0  0  0  0  0  0  0  0  0  0
   -5.4544   -0.9309   -0.8000 H   0  0  0  0  0  0  0  0  0  0  0  0
   -5.4039   -1.0982    0.9764 H   0  0  0  0  0  0  0  0  0  0  0  0
   -6.5181    1.1816    1.2179 H   0  0  0  0  0  0  0  0  0  0  0  0
   -8.2496    1.4976   -0.4253 H   0  0  0  0  0  0  0  0  0  0  0  0
   -7.4851    0.2097   -1.5268 H   0  0  0  0  0  0  0  0  0  0  0  0
  1 12  1  0  0  0  0
  1 13  1  0  0  0  0
  2 12  2  0  0  0  0
  3  4  1  0  0  0  0
  3  5  1  0  0  0  0
  3 16  1  0  0  0  0
  3 17  1  0  0  0  0
  4  6  1  0  0  0  0
  4 18  1  0  0  0  0
  4 19  1  0  0  0  0
  5  7  1  0  0  0  0
  5 20  1  0  0  0  0
  5 21  1  0  0  0  0
  6  8  1  0  0  0  0
  6 22  1  0  0  0  0
  6 23  1  0  0  0  0
  7  9  1  0  0  0  0
  7 24  1  0  0  0  0
  7 25  1  0  0  0  0
  8 10  1  0  0  0  0
  8 26  1  0  0  0  0
  8 27  1  0  0  0  0
  9 11  1  0  0  0  0
  9 28  1  0  0  0  0
  9 29  1  0  0  0  0
 10 12  1  0  0  0  0
 10 30  1  0  0  0  0
 10 31  1  0  0  0  0
 11 32  1  0  0  0  0
 11 33  1  0  0  0  0
 11 34  1  0  0  0  0
 13 14  1  0  0  0  0
 13 35  1  0  0  0  0
 13 36  1  0  0  0  0
 14 15  2  0  0  0  0
 14 37  1  0  0  0  0
 15 38  1  0  0  0  0
 15 39  1  0  0  0  0
M  END
> <PUBCHEM_COMPOUND_CID>
93831

> <PUBCHEM_CONFORMER_RMSD>
1

> <PUBCHEM_CONFORMER_DIVERSEORDER>
1
137
136
71
2
23
81
47
122
147
76
115
110
11
19
92
87
40
65
41
10
105
49
7
61
144
98
38
36
130
43
96
121
18
34
140
51
112
29
100
48
53
143
149
83
6
88
127
70
101
103
55
37
126
39
17
82
26
85
9
113
60
111
16
138
73
118
109
123
106
95
52
25
8
21
119
114
44
56
5
131
12
86
78
68
63
46
14
69
58
72
116
120
145
22
125
32
148
128
24
3
108
141
124
66
31
42
20
139
50
133
104
62
64
91
77
59
57
80
13
94
93
67
4
107
90
134
146
15
129
30
54
135
75
79
84
99
35
117
27
89
142
74
97
132
102
150
45
33
28

> <PUBCHEM_MMFF94_PARTIAL_CHARGES>
10
1 -0.43
10 0.06
12 0.66
13 0.42
14 -0.29
15 -0.3
2 -0.57
37 0.15
38 0.15
39 0.15

> <PUBCHEM_EFFECTIVE_ROTOR_COUNT>
11

> <PUBCHEM_PHARMACOPHORE_FEATURES>
3
1 11 hydrophobe
1 15 hydrophobe
1 2 acceptor

> <PUBCHEM_HEAVY_ATOM_COUNT>
15

> <PUBCHEM_ATOM_DEF_STEREO_COUNT>
0

> <PUBCHEM_ATOM_UDEF_STEREO_COUNT>
0

> <PUBCHEM_BOND_DEF_STEREO_COUNT>
0

> <PUBCHEM_BOND_UDEF_STEREO_COUNT>
0

> <PUBCHEM_ISOTOPIC_ATOM_COUNT>
0

> <PUBCHEM_COMPONENT_COUNT>
1

> <PUBCHEM_CACTVS_TAUTO_COUNT>
1

> <PUBCHEM_CONFORMER_ID>
00016E8700000001

> <PUBCHEM_MMFF94_ENERGY>
2.0076

> <PUBCHEM_FEATURE_SELFOVERLAP>
15.223

> <PUBCHEM_SHAPE_FINGERPRINT>
10968037 39 18272089400933394127
11315181 36 17775007916161406331
12091667 2 18333733525008881587
13073987 5 12613016272213333932
13533116 47 17346037758052757174
13964095 4 18409729552016571461
14123256 10 10375871874621083156
1420 363 8574711312854094137
14251764 18 17989208122843586802
14251764 46 18410856555344822273
14729087 3 18334573521574900621
155225 1 18335981970918072981
17834076 25 18410856559639789586
18006028 8 17418374687994035680
20281389 69 18186517700704336380
20621476 8 18261110751486433150
21150785 3 15267341820886137605
220451 1 15647048291977877794
22224240 67 15339115741393455252
23035841 295 17821446872229447114
23402539 116 18201997754891780110
23521765 1 18341895190709708216
246663 6 8574713511734957352
28498 318 18412263905244711446
33684 2 18410855455833194505
42788 4 18412545422933575128
57583515 80 17632578257951892419
59567204 34 15912775986458233489
59682541 35 7925621207280801860
59755656 520 16877660192892284243
8209 1 18272932721550600301

> <PUBCHEM_SHAPE_MULTIPOLES>
296.95
24.64
0.95
0.64
12.2
0.17
0.01
-4.48
1.27
-0.58
0.03
-0.2
-0.03
0.15

> <PUBCHEM_SHAPE_SELFOVERLAP>
543.639

> <PUBCHEM_SHAPE_VOLUME>
188.5

> <PUBCHEM_COORDINATE_TYPE>
2
5
10

$$$$
