93947
  -OEChem-11232108473D

 44 46  0     1  0  0  0  0  0999 V2000
   -0.1114    2.0660    1.2299 O   0  0  0  0  0  0  0  0  0  0  0  0
    1.0501    3.1503   -0.4537 O   0  0  0  0  0  0  0  0  0  0  0  0
    0.8476    0.4067   -0.1849 C   0  0  1  0  0  0  0  0  0  0  0  0
    1.0057   -1.0791   -0.6557 C   0  0  1  0  0  0  0  0  0  0  0  0
    2.4591   -0.9995   -0.1128 C   0  0  0  0  0  0  0  0  0  0  0  0
   -0.4658    1.0103    0.3212 C   0  0  1  0  0  0  0  0  0  0  0  0
    1.9682    0.0967    0.8533 C   0  0  0  0  0  0  0  0  0  0  0  0
   -2.1220   -1.0019    0.2502 C   0  0  2  0  0  0  0  0  0  0  0  0
   -1.3356    0.0233    1.1070 C   0  0  0  0  0  0  0  0  0  0  0  0
    0.1980   -2.1987   -0.0080 C   0  0  0  0  0  0  0  0  0  0  0  0
   -1.2642   -2.1181   -0.4211 C   0  0  0  0  0  0  0  0  0  0  0  0
   -1.2660    1.6610   -0.8202 C   0  0  0  0  0  0  0  0  0  0  0  0
   -2.9126   -0.2401   -0.8428 C   0  0  0  0  0  0  0  0  0  0  0  0
   -2.0182    0.6639   -1.6896 C   0  0  0  0  0  0  0  0  0  0  0  0
    2.9071   -2.2706    0.5879 C   0  0  0  0  0  0  0  0  0  0  0  0
    3.5626   -0.5308   -1.0352 C   0  0  0  0  0  0  0  0  0  0  0  0
   -3.1463   -1.6946    1.1807 C   0  0  0  0  0  0  0  0  0  0  0  0
    0.6436    3.0553    0.6937 C   0  0  0  0  0  0  0  0  0  0  0  0
    1.2390    1.0240   -1.0064 H   0  0  0  0  0  0  0  0  0  0  0  0
    0.9631   -1.1775   -1.7494 H   0  0  0  0  0  0  0  0  0  0  0  0
    2.6690    0.9153    1.0458 H   0  0  0  0  0  0  0  0  0  0  0  0
    1.6037   -0.2655    1.8218 H   0  0  0  0  0  0  0  0  0  0  0  0
   -2.0662    0.6211    1.6743 H   0  0  0  0  0  0  0  0  0  0  0  0
   -0.7534   -0.4756    1.8906 H   0  0  0  0  0  0  0  0  0  0  0  0
    0.2581   -2.2094    1.0838 H   0  0  0  0  0  0  0  0  0  0  0  0
    0.5797   -3.1657   -0.3595 H   0  0  0  0  0  0  0  0  0  0  0  0
   -1.3127   -2.0410   -1.5143 H   0  0  0  0  0  0  0  0  0  0  0  0
   -1.7142   -3.0964   -0.2024 H   0  0  0  0  0  0  0  0  0  0  0  0
   -0.6536    2.2485   -1.5092 H   0  0  0  0  0  0  0  0  0  0  0  0
   -1.9910    2.3691   -0.3946 H   0  0  0  0  0  0  0  0  0  0  0  0
   -3.6881    0.3804   -0.3735 H   0  0  0  0  0  0  0  0  0  0  0  0
   -3.4403   -0.9461   -1.4964 H   0  0  0  0  0  0  0  0  0  0  0  0
   -1.3106    0.0712   -2.2786 H   0  0  0  0  0  0  0  0  0  0  0  0
   -2.6396    1.2083   -2.4107 H   0  0  0  0  0  0  0  0  0  0  0  0
    2.2884   -2.5517    1.4448 H   0  0  0  0  0  0  0  0  0  0  0  0
    2.9472   -3.1168   -0.1071 H   0  0  0  0  0  0  0  0  0  0  0  0
    3.9182   -2.1473    0.9961 H   0  0  0  0  0  0  0  0  0  0  0  0
    3.3002    0.3865   -1.5723 H   0  0  0  0  0  0  0  0  0  0  0  0
    4.4868   -0.3265   -0.4828 H   0  0  0  0  0  0  0  0  0  0  0  0
    3.7874   -1.2902   -1.7926 H   0  0  0  0  0  0  0  0  0  0  0  0
   -2.6381   -2.2606    1.9697 H   0  0  0  0  0  0  0  0  0  0  0  0
   -3.8053   -0.9655    1.6656 H   0  0  0  0  0  0  0  0  0  0  0  0
   -3.7843   -2.3899    0.6229 H   0  0  0  0  0  0  0  0  0  0  0  0
    0.8508    3.7988    1.4786 H   0  0  0  0  0  0  0  0  0  0  0  0
  1  6  1  0  0  0  0
  1 18  1  0  0  0  0
  2 18  2  0  0  0  0
  3  4  1  0  0  0  0
  3  6  1  0  0  0  0
  3  7  1  0  0  0  0
  3 19  1  0  0  0  0
  4  5  1  0  0  0  0
  4 10  1  0  0  0  0
  4 20  1  0  0  0  0
  5  7  1  0  0  0  0
  5 15  1  0  0  0  0
  5 16  1  0  0  0  0
  6  9  1  0  0  0  0
  6 12  1  0  0  0  0
  7 21  1  0  0  0  0
  7 22  1  0  0  0  0
  8  9  1  0  0  0  0
  8 11  1  0  0  0  0
  8 13  1  0  0  0  0
  8 17  1  0  0  0  0
  9 23  1  0  0  0  0
  9 24  1  0  0  0  0
 10 11  1  0  0  0  0
 10 25  1  0  0  0  0
 10 26  1  0  0  0  0
 11 27  1  0  0  0  0
 11 28  1  0  0  0  0
 12 14  1  0  0  0  0
 12 29  1  0  0  0  0
 12 30  1  0  0  0  0
 13 14  1  0  0  0  0
 13 31  1  0  0  0  0
 13 32  1  0  0  0  0
 14 33  1  0  0  0  0
 14 34  1  0  0  0  0
 15 35  1  0  0  0  0
 15 36  1  0  0  0  0
 15 37  1  0  0  0  0
 16 38  1  0  0  0  0
 16 39  1  0  0  0  0
 16 40  1  0  0  0  0
 17 41  1  0  0  0  0
 17 42  1  0  0  0  0
 17 43  1  0  0  0  0
 18 44  1  0  0  0  0
M  END
> <PUBCHEM_COMPOUND_CID>
93947

> <PUBCHEM_CONFORMER_RMSD>
0.6

> <PUBCHEM_CONFORMER_DIVERSEORDER>
1
10
19
18
11
21
20
26
17
16
15
4
27
25
2
13
14
8
22
3
9
24
23
12
6
5
7

> <PUBCHEM_MMFF94_PARTIAL_CHARGES>
5
1 -0.43
18 0.66
2 -0.57
44 0.06
6 0.28

> <PUBCHEM_EFFECTIVE_ROTOR_COUNT>
3.6

> <PUBCHEM_PHARMACOPHORE_FEATURES>
5
1 2 acceptor
3 5 15 16 hydrophobe
4 3 4 5 7 rings
6 6 8 9 12 13 14 rings
7 3 4 6 8 9 10 11 rings

> <PUBCHEM_HEAVY_ATOM_COUNT>
18

> <PUBCHEM_ATOM_DEF_STEREO_COUNT>
0

> <PUBCHEM_ATOM_UDEF_STEREO_COUNT>
4

> <PUBCHEM_BOND_DEF_STEREO_COUNT>
0

> <PUBCHEM_BOND_UDEF_STEREO_COUNT>
0

> <PUBCHEM_ISOTOPIC_ATOM_COUNT>
0

> <PUBCHEM_COMPONENT_COUNT>
1

> <PUBCHEM_CACTVS_TAUTO_COUNT>
1

> <PUBCHEM_CONFORMER_ID>
00016EFB00000001

> <PUBCHEM_MMFF94_ENERGY>
72.568

> <PUBCHEM_FEATURE_SELFOVERLAP>
26.16

> <PUBCHEM_SHAPE_FINGERPRINT>
104564 63 18127982896796166162
10863032 1 17023183782106094959
10967382 1 18267864059014664970
12423570 1 12864929315643674505
12553582 1 18413395327936586802
13024252 1 13118870772905610303
13027679 85 18412548712403971621
13140716 1 18268147561295061082
13299463 15 18054492626190643845
14142880 1 17915181217338509769
14181834 199 18052235573732273356
14817 1 14667600314334545089
15279308 128 18339914910001326669
15490181 8 17618226100630559126
15906896 17 17696480585157599881
16945 1 18267015231595413483
19591789 44 17617383222109861942
19868273 325 18340492170801602380
20510252 161 18269553832541057938
20691752 17 17536307386393504251
21061003 4 18341621425109707707
21524375 3 17332799956065828616
22182313 1 17971457745001723975
22344851 341 17692543624812734346
22721475 48 18410011022545379591
22802520 49 18114452470340799341
2334 1 18412543193513239162
23402539 116 17981587300103021374
23419403 2 18189321519868877999
23558518 356 17259905122324951357
23559900 14 18195230128391417930
238 59 17765113509791526069
2748010 2 18341601603793289122
31174 14 18264777738729533963
353137 74 17402311695233188773
458136 41 17689452889026851345
5845 1 13629230041440725864
7364860 26 17983023533040608760
81228 2 18054508002326843256

> <PUBCHEM_SHAPE_MULTIPOLES>
358.69
4.41
3.16
1.27
1.33
1.95
-0.09
-2.55
-0.46
0.41
0.53
-0.45
0.17
0.45

> <PUBCHEM_SHAPE_SELFOVERLAP>
757.142

> <PUBCHEM_SHAPE_VOLUME>
200.4

> <PUBCHEM_COORDINATE_TYPE>
2
5
10

$$$$
