94111
  -OEChem-11232108513D

 47 47  0     0  0  0  0  0  0999 V2000
    2.1967    0.8213    0.8554 O   0  0  0  0  0  0  0  0  0  0  0  0
    3.8517   -0.8255    0.3236 O   0  0  0  0  0  0  0  0  0  0  0  0
    1.2612    0.2788   -0.0773 C   0  0  0  0  0  0  0  0  0  0  0  0
    0.4495   -0.8242    0.6256 C   0  0  0  0  0  0  0  0  0  0  0  0
    0.4363    1.4418   -0.6596 C   0  0  0  0  0  0  0  0  0  0  0  0
   -0.6329   -1.4574   -0.2521 C   0  0  0  0  0  0  0  0  0  0  0  0
   -0.4070    2.2113    0.3703 C   0  0  0  0  0  0  0  0  0  0  0  0
   -1.6890   -2.1888    0.5806 C   0  0  0  0  0  0  0  0  0  0  0  0
   -1.7131    2.7851   -0.2003 C   0  0  0  0  0  0  0  0  0  0  0  0
   -2.9714   -2.5027   -0.1945 C   0  0  0  0  0  0  0  0  0  0  0  0
   -2.7652    1.7465   -0.6268 C   0  0  0  0  0  0  0  0  0  0  0  0
   -3.7203   -1.3255   -0.8439 C   0  0  0  0  0  0  0  0  0  0  0  0
   -3.2548    0.8594    0.5243 C   0  0  0  0  0  0  0  0  0  0  0  0
   -4.2446   -0.2361    0.1037 C   0  0  0  0  0  0  0  0  0  0  0  0
    3.0991   -0.1679    1.3428 C   0  0  0  0  0  0  0  0  0  0  0  0
    4.6707    0.0774   -0.4075 C   0  0  0  0  0  0  0  0  0  0  0  0
    5.4330   -0.6934   -1.4642 C   0  0  0  0  0  0  0  0  0  0  0  0
    1.8056   -0.1677   -0.9188 H   0  0  0  0  0  0  0  0  0  0  0  0
    0.0229   -0.4325    1.5559 H   0  0  0  0  0  0  0  0  0  0  0  0
    1.0937   -1.6545    0.9331 H   0  0  0  0  0  0  0  0  0  0  0  0
   -0.1759    1.0770   -1.4881 H   0  0  0  0  0  0  0  0  0  0  0  0
    1.1323    2.1628   -1.1103 H   0  0  0  0  0  0  0  0  0  0  0  0
   -0.1744   -2.1521   -0.9662 H   0  0  0  0  0  0  0  0  0  0  0  0
   -1.1188   -0.6887   -0.8473 H   0  0  0  0  0  0  0  0  0  0  0  0
    0.1975    3.0473    0.7458 H   0  0  0  0  0  0  0  0  0  0  0  0
   -0.6323    1.6048    1.2498 H   0  0  0  0  0  0  0  0  0  0  0  0
   -1.9483   -1.6178    1.4777 H   0  0  0  0  0  0  0  0  0  0  0  0
   -1.2585   -3.1300    0.9453 H   0  0  0  0  0  0  0  0  0  0  0  0
   -1.4765    3.4196   -1.0632 H   0  0  0  0  0  0  0  0  0  0  0  0
   -2.1598    3.4434    0.5553 H   0  0  0  0  0  0  0  0  0  0  0  0
   -3.6609   -3.0220    0.4833 H   0  0  0  0  0  0  0  0  0  0  0  0
   -2.7277   -3.2227   -0.9865 H   0  0  0  0  0  0  0  0  0  0  0  0
   -2.3675    1.1430   -1.4456 H   0  0  0  0  0  0  0  0  0  0  0  0
   -3.6269    2.2845   -1.0421 H   0  0  0  0  0  0  0  0  0  0  0  0
   -4.5990   -1.7629   -1.3381 H   0  0  0  0  0  0  0  0  0  0  0  0
   -3.1293   -0.8944   -1.6565 H   0  0  0  0  0  0  0  0  0  0  0  0
   -3.7553    1.5019    1.2602 H   0  0  0  0  0  0  0  0  0  0  0  0
   -2.4140    0.4099    1.0492 H   0  0  0  0  0  0  0  0  0  0  0  0
   -5.0946    0.2565   -0.3864 H   0  0  0  0  0  0  0  0  0  0  0  0
   -4.6489   -0.7120    1.0055 H   0  0  0  0  0  0  0  0  0  0  0  0
    3.8025    0.3469    2.0086 H   0  0  0  0  0  0  0  0  0  0  0  0
    2.6065   -0.9070    1.9799 H   0  0  0  0  0  0  0  0  0  0  0  0
    4.0599    0.8466   -0.8915 H   0  0  0  0  0  0  0  0  0  0  0  0
    5.3783    0.5653    0.2721 H   0  0  0  0  0  0  0  0  0  0  0  0
    6.0795   -0.0283   -2.0435 H   0  0  0  0  0  0  0  0  0  0  0  0
    6.0494   -1.4727   -1.0041 H   0  0  0  0  0  0  0  0  0  0  0  0
    4.7411   -1.1969   -2.1475 H   0  0  0  0  0  0  0  0  0  0  0  0
  1  3  1  0  0  0  0
  1 15  1  0  0  0  0
  2 15  1  0  0  0  0
  2 16  1  0  0  0  0
  3  4  1  0  0  0  0
  3  5  1  0  0  0  0
  3 18  1  0  0  0  0
  4  6  1  0  0  0  0
  4 19  1  0  0  0  0
  4 20  1  0  0  0  0
  5  7  1  0  0  0  0
  5 21  1  0  0  0  0
  5 22  1  0  0  0  0
  6  8  1  0  0  0  0
  6 23  1  0  0  0  0
  6 24  1  0  0  0  0
  7  9  1  0  0  0  0
  7 25  1  0  0  0  0
  7 26  1  0  0  0  0
  8 10  1  0  0  0  0
  8 27  1  0  0  0  0
  8 28  1  0  0  0  0
  9 11  1  0  0  0  0
  9 29  1  0  0  0  0
  9 30  1  0  0  0  0
 10 12  1  0  0  0  0
 10 31  1  0  0  0  0
 10 32  1  0  0  0  0
 11 13  1  0  0  0  0
 11 33  1  0  0  0  0
 11 34  1  0  0  0  0
 12 14  1  0  0  0  0
 12 35  1  0  0  0  0
 12 36  1  0  0  0  0
 13 14  1  0  0  0  0
 13 37  1  0  0  0  0
 13 38  1  0  0  0  0
 14 39  1  0  0  0  0
 14 40  1  0  0  0  0
 15 41  1  0  0  0  0
 15 42  1  0  0  0  0
 16 17  1  0  0  0  0
 16 43  1  0  0  0  0
 16 44  1  0  0  0  0
 17 45  1  0  0  0  0
 17 46  1  0  0  0  0
 17 47  1  0  0  0  0
M  END
> <PUBCHEM_COMPOUND_CID>
94111

> <PUBCHEM_CONFORMER_RMSD>
0.8

> <PUBCHEM_CONFORMER_DIVERSEORDER>
1
110
41
104
109
122
56
6
94
57
118
103
13
123
39
66
19
43
124
81
87
50
91
99
75
129
120
61
114
36
78
89
48
102
37
60
23
59
17
18
96
98
93
90
125
133
26
47
65
131
82
134
49
107
136
16
20
79
80
105
21
111
72
11
85
32
108
76
73
53
132
116
97
115
69
15
55
113
83
58
130
71
62
44
127
24
95
42
52
10
2
31
128
77
106
38
28
12
74
135
92
30
68
101
70
100
126
29
117
63
8
34
25
14
119
9
46
54
64
45
5
84
7
33
112
4
51
40
86
3
22
27
88
35
67
121

> <PUBCHEM_MMFF94_PARTIAL_CHARGES>
5
1 -0.56
15 0.56
16 0.28
2 -0.56
3 0.28

> <PUBCHEM_EFFECTIVE_ROTOR_COUNT>
6.4

> <PUBCHEM_PHARMACOPHORE_FEATURES>
2
1 1 acceptor
1 2 acceptor

> <PUBCHEM_HEAVY_ATOM_COUNT>
17

> <PUBCHEM_ATOM_DEF_STEREO_COUNT>
0

> <PUBCHEM_ATOM_UDEF_STEREO_COUNT>
0

> <PUBCHEM_BOND_DEF_STEREO_COUNT>
0

> <PUBCHEM_BOND_UDEF_STEREO_COUNT>
0

> <PUBCHEM_ISOTOPIC_ATOM_COUNT>
0

> <PUBCHEM_COMPONENT_COUNT>
1

> <PUBCHEM_CACTVS_TAUTO_COUNT>
1

> <PUBCHEM_CONFORMER_ID>
00016F9F00000001

> <PUBCHEM_MMFF94_ENERGY>
31.4203

> <PUBCHEM_FEATURE_SELFOVERLAP>
10.181

> <PUBCHEM_SHAPE_FINGERPRINT>
10730089 88 18271818886513042510
10756046 5 18189345717878732172
10759866 29 17822567179751273330
108231 29 18272078401206301073
11132069 177 18341320159092476257
11458722 379 18409166606126145251
12011746 2 18410848850896238565
12553582 1 18335413591159923857
12954195 1 18270691844466424892
13583140 156 14548726357031679170
14251740 79 18270691857124726978
14251757 5 18334020518343776166
14573314 32 18131354120180934270
15415430 112 18335421257412848416
16752209 62 18335413565290081666
17804303 29 18413106182052924321
20261772 1 18409454687078873881
20645477 70 17060624378658266766
20871999 31 18408612465741309974
21634736 98 18188771780945065788
2297311 6 18410865381661274103
232386 152 18410012182387113661
23402539 116 18271514382269921695
23557571 272 18201728331350643942
23559900 14 18342452677560233360
59755656 215 18341612577704256359
6034566 193 15072604173186444764
68521 5 18409166627669352196

> <PUBCHEM_SHAPE_MULTIPOLES>
338.11
9.25
2.78
1.06
10.11
0.58
-0.03
-2.87
-2.39
-3.07
-0.15
0.85
-0.1
0.15

> <PUBCHEM_SHAPE_SELFOVERLAP>
631.352

> <PUBCHEM_SHAPE_VOLUME>
208.9

> <PUBCHEM_COORDINATE_TYPE>
2
5
10

$$$$
