94178
  -OEChem-11232109053D

 29 30  0     1  0  0  0  0  0999 V2000
    0.2343    1.6921    0.9710 O   0  0  0  0  0  0  0  0  0  0  0  0
    0.4288    0.3515    0.5078 C   0  0  1  0  0  0  0  0  0  0  0  0
   -0.4556    0.1357   -0.7420 C   0  0  0  0  0  0  0  0  0  0  0  0
    1.8838    0.0719    0.2325 C   0  0  0  0  0  0  0  0  0  0  0  0
   -1.9011   -0.0269   -0.4117 C   0  0  0  0  0  0  0  0  0  0  0  0
    2.3801   -1.2095    0.4227 C   0  0  0  0  0  0  0  0  0  0  0  0
    2.7049    1.1004   -0.2063 C   0  0  0  0  0  0  0  0  0  0  0  0
   -2.4209   -1.2970   -0.1621 C   0  0  0  0  0  0  0  0  0  0  0  0
   -2.7332    1.0912   -0.3530 C   0  0  0  0  0  0  0  0  0  0  0  0
    3.7269   -1.4681    0.1682 C   0  0  0  0  0  0  0  0  0  0  0  0
    4.0517    0.8417   -0.4610 C   0  0  0  0  0  0  0  0  0  0  0  0
   -3.7728   -1.4489    0.1464 C   0  0  0  0  0  0  0  0  0  0  0  0
   -4.0849    0.9392   -0.0442 C   0  0  0  0  0  0  0  0  0  0  0  0
    4.5627   -0.4426   -0.2739 C   0  0  0  0  0  0  0  0  0  0  0  0
   -4.6048   -0.3309    0.2056 C   0  0  0  0  0  0  0  0  0  0  0  0
    0.1044   -0.3042    1.3267 H   0  0  0  0  0  0  0  0  0  0  0  0
   -0.1226   -0.7544   -1.2929 H   0  0  0  0  0  0  0  0  0  0  0  0
   -0.3326    0.9763   -1.4387 H   0  0  0  0  0  0  0  0  0  0  0  0
    1.7370   -2.0158    0.7640 H   0  0  0  0  0  0  0  0  0  0  0  0
    2.3255    2.1050   -0.3694 H   0  0  0  0  0  0  0  0  0  0  0  0
   -1.7828   -2.1758   -0.2024 H   0  0  0  0  0  0  0  0  0  0  0  0
   -2.3420    2.0864   -0.5470 H   0  0  0  0  0  0  0  0  0  0  0  0
   -0.6613    1.7496    1.3441 H   0  0  0  0  0  0  0  0  0  0  0  0
    4.1248   -2.4683    0.3132 H   0  0  0  0  0  0  0  0  0  0  0  0
    4.7021    1.6395   -0.8077 H   0  0  0  0  0  0  0  0  0  0  0  0
   -4.1775   -2.4377    0.3415 H   0  0  0  0  0  0  0  0  0  0  0  0
   -4.7328    1.8096    0.0014 H   0  0  0  0  0  0  0  0  0  0  0  0
    5.6112   -0.6442   -0.4730 H   0  0  0  0  0  0  0  0  0  0  0  0
   -5.6572   -0.4492    0.4461 H   0  0  0  0  0  0  0  0  0  0  0  0
  1  2  1  0  0  0  0
  1 23  1  0  0  0  0
  2  3  1  0  0  0  0
  2  4  1  0  0  0  0
  2 16  1  0  0  0  0
  3  5  1  0  0  0  0
  3 17  1  0  0  0  0
  3 18  1  0  0  0  0
  4  6  2  0  0  0  0
  4  7  1  0  0  0  0
  5  8  2  0  0  0  0
  5  9  1  0  0  0  0
  6 10  1  0  0  0  0
  6 19  1  0  0  0  0
  7 11  2  0  0  0  0
  7 20  1  0  0  0  0
  8 12  1  0  0  0  0
  8 21  1  0  0  0  0
  9 13  2  0  0  0  0
  9 22  1  0  0  0  0
 10 14  2  0  0  0  0
 10 24  1  0  0  0  0
 11 14  1  0  0  0  0
 11 25  1  0  0  0  0
 12 15  2  0  0  0  0
 12 26  1  0  0  0  0
 13 15  1  0  0  0  0
 13 27  1  0  0  0  0
 14 28  1  0  0  0  0
 15 29  1  0  0  0  0
M  END
> <PUBCHEM_COMPOUND_CID>
94178

> <PUBCHEM_CONFORMER_RMSD>
0.6

> <PUBCHEM_CONFORMER_DIVERSEORDER>
1
6
9
5
7
13
8
14
4
11
10
2
3
12

> <PUBCHEM_MMFF94_PARTIAL_CHARGES>
26
1 -0.68
10 -0.15
11 -0.15
12 -0.15
13 -0.15
14 -0.15
15 -0.15
19 0.15
2 0.42
20 0.15
21 0.15
22 0.15
23 0.4
24 0.15
25 0.15
26 0.15
27 0.15
28 0.15
29 0.15
3 0.14
4 -0.14
5 -0.14
6 -0.15
7 -0.15
8 -0.15
9 -0.15

> <PUBCHEM_EFFECTIVE_ROTOR_COUNT>
3

> <PUBCHEM_PHARMACOPHORE_FEATURES>
4
1 1 acceptor
1 1 donor
6 4 6 7 10 11 14 rings
6 5 8 9 12 13 15 rings

> <PUBCHEM_HEAVY_ATOM_COUNT>
15

> <PUBCHEM_ATOM_DEF_STEREO_COUNT>
0

> <PUBCHEM_ATOM_UDEF_STEREO_COUNT>
1

> <PUBCHEM_BOND_DEF_STEREO_COUNT>
0

> <PUBCHEM_BOND_UDEF_STEREO_COUNT>
0

> <PUBCHEM_ISOTOPIC_ATOM_COUNT>
0

> <PUBCHEM_COMPONENT_COUNT>
1

> <PUBCHEM_CACTVS_TAUTO_COUNT>
1

> <PUBCHEM_CONFORMER_ID>
00016FE200000001

> <PUBCHEM_MMFF94_ENERGY>
40.1742

> <PUBCHEM_FEATURE_SELFOVERLAP>
20.297

> <PUBCHEM_SHAPE_FINGERPRINT>
10465860 250 18201997711752300377
10616163 171 18337955691855678391
12107183 9 17688307893674019833
12346177 29 16271632482043340943
124424 183 18202560670796718613
12616999 72 18259991478983173062
128620 24 14490189410151138547
13167823 11 18335138691409150882
13296908 3 18201712981253585384
13675066 3 18060693979356485746
13760787 19 18409450288584138422
14252887 29 17561370569449271654
15196674 1 18409166614589583215
15239154 128 18334014990562591285
15242433 33 18409450284273307798
15375462 189 18412820296171323850
15653759 3 18341889723290239081
17804303 29 18413389860796055767
17834072 33 18409728499617715319
17834074 16 18335139808195599939
18186145 218 17894623743134147958
19422 9 18408604759873596623
200 152 18411700972186199226
20281475 54 18410003360244797015
20645477 70 18410292476174250598
21267235 1 18410582772739259598
22094290 60 18114179726948263997
221490 88 18263088875804695250
22485316 2 18411697698935868318
23402539 116 16515678927687891596
23402655 69 18261111846650437036
23557571 272 17458622285390309364
23559900 14 18411976953941994728
265663 24 10303813168033670844
26918003 58 18411978040384091306
2871803 45 18040990752382825307
3268164 11 16008739204544834855
42 15 18408605850858664887
4214541 1 18408322159853019709
465052 167 18058734740226248183
474 4 16878796052891524780
4921388 177 16660655093445338091
4990 188 18412269419692634206
5104073 3 18409165515067147000
633830 44 15864074243169168860
77779 3 18335421270218499183
83771 10 18410291423611331129
9709674 26 18335426776372568442

> <PUBCHEM_SHAPE_MULTIPOLES>
302.82
9.93
1.55
0.78
0.4
0.14
0.02
1.43
-0.48
0.01
0.13
-0.05
-0.09
-0.11

> <PUBCHEM_SHAPE_SELFOVERLAP>
644.373

> <PUBCHEM_SHAPE_VOLUME>
168.2

> <PUBCHEM_COORDINATE_TYPE>
2
5
10

$$$$
