94185
  -OEChem-11232108553D

 22 22  0     1  0  0  0  0  0999 V2000
    2.3361    1.2884   -0.6174 O   0  0  0  0  0  0  0  0  0  0  0  0
    1.2097   -0.3047    0.8256 C   0  0  0  0  0  0  0  0  0  0  0  0
    2.1922   -0.1042   -0.3438 C   0  0  2  0  0  0  0  0  0  0  0  0
   -0.2169   -0.1646    0.4134 C   0  0  0  0  0  0  0  0  0  0  0  0
    3.5692   -0.6780   -0.0349 C   0  0  0  0  0  0  0  0  0  0  0  0
   -0.8378    1.0835    0.4628 C   0  0  0  0  0  0  0  0  0  0  0  0
   -0.9303   -1.2816   -0.0210 C   0  0  0  0  0  0  0  0  0  0  0  0
   -2.1721    1.2145    0.0779 C   0  0  0  0  0  0  0  0  0  0  0  0
   -2.2646   -1.1507   -0.4061 C   0  0  0  0  0  0  0  0  0  0  0  0
   -2.8854    0.0974   -0.3567 C   0  0  0  0  0  0  0  0  0  0  0  0
    1.4305    0.4110    1.6285 H   0  0  0  0  0  0  0  0  0  0  0  0
    1.3497   -1.3022    1.2625 H   0  0  0  0  0  0  0  0  0  0  0  0
    1.8059   -0.5830   -1.2516 H   0  0  0  0  0  0  0  0  0  0  0  0
    4.0101   -0.1841    0.8380 H   0  0  0  0  0  0  0  0  0  0  0  0
    3.5175   -1.7537    0.1585 H   0  0  0  0  0  0  0  0  0  0  0  0
    4.2541   -0.5081   -0.8726 H   0  0  0  0  0  0  0  0  0  0  0  0
   -0.2934    1.9620    0.7988 H   0  0  0  0  0  0  0  0  0  0  0  0
   -0.4577   -2.2593   -0.0664 H   0  0  0  0  0  0  0  0  0  0  0  0
   -2.6556    2.1863    0.1162 H   0  0  0  0  0  0  0  0  0  0  0  0
   -2.8200   -2.0203   -0.7450 H   0  0  0  0  0  0  0  0  0  0  0  0
    2.9369    1.3784   -1.3766 H   0  0  0  0  0  0  0  0  0  0  0  0
   -3.9243    0.1993   -0.6567 H   0  0  0  0  0  0  0  0  0  0  0  0
  1  3  1  0  0  0  0
  1 21  1  0  0  0  0
  2  3  1  0  0  0  0
  2  4  1  0  0  0  0
  2 11  1  0  0  0  0
  2 12  1  0  0  0  0
  3  5  1  0  0  0  0
  3 13  1  0  0  0  0
  4  6  2  0  0  0  0
  4  7  1  0  0  0  0
  5 14  1  0  0  0  0
  5 15  1  0  0  0  0
  5 16  1  0  0  0  0
  6  8  1  0  0  0  0
  6 17  1  0  0  0  0
  7  9  2  0  0  0  0
  7 18  1  0  0  0  0
  8 10  2  0  0  0  0
  8 19  1  0  0  0  0
  9 10  1  0  0  0  0
  9 20  1  0  0  0  0
 10 22  1  0  0  0  0
M  END
> <PUBCHEM_COMPOUND_CID>
94185

> <PUBCHEM_CONFORMER_RMSD>
0.4

> <PUBCHEM_CONFORMER_DIVERSEORDER>
1
8
4
9
10
6
3
7
5
2

> <PUBCHEM_MMFF94_PARTIAL_CHARGES>
15
1 -0.68
10 -0.15
17 0.15
18 0.15
19 0.15
2 0.14
20 0.15
21 0.4
22 0.15
3 0.28
4 -0.14
6 -0.15
7 -0.15
8 -0.15
9 -0.15

> <PUBCHEM_EFFECTIVE_ROTOR_COUNT>
2

> <PUBCHEM_PHARMACOPHORE_FEATURES>
3
1 1 acceptor
1 1 donor
6 4 6 7 8 9 10 rings

> <PUBCHEM_HEAVY_ATOM_COUNT>
10

> <PUBCHEM_ATOM_DEF_STEREO_COUNT>
0

> <PUBCHEM_ATOM_UDEF_STEREO_COUNT>
1

> <PUBCHEM_BOND_DEF_STEREO_COUNT>
0

> <PUBCHEM_BOND_UDEF_STEREO_COUNT>
0

> <PUBCHEM_ISOTOPIC_ATOM_COUNT>
0

> <PUBCHEM_COMPONENT_COUNT>
1

> <PUBCHEM_CACTVS_TAUTO_COUNT>
1

> <PUBCHEM_CONFORMER_ID>
00016FE900000001

> <PUBCHEM_MMFF94_ENERGY>
20.5173

> <PUBCHEM_FEATURE_SELFOVERLAP>
15.223

> <PUBCHEM_SHAPE_FINGERPRINT>
11062470 55 14261346938238676082
12716758 59 18342733022596126147
12897270 3 18412545439680908182
12932764 1 16660636362739362746
13024252 1 17967255295358798523
14325111 11 18410575071925928576
15775835 57 17968380052419348628
16945 1 18340758287154669147
20201158 50 17632578223449872414
20653085 51 17748829613587463885
21040471 1 18198612238536430305
23402539 116 18129932391131582021
23552423 10 18408318865349573931
23559900 14 17988355963410850594
2748010 2 16248552946960273163
29004967 10 15195285334854781114
3248919 1 17275111617366483352
369184 2 9007062348574506767
5084963 1 18412260605944839600
9939556 21 18408605863928098654

> <PUBCHEM_SHAPE_MULTIPOLES>
199.93
5
1.37
0.79
2.85
0.07
0.04
-0.25
-0.86
-0.45
-0.08
0.11
0.03
-0.3

> <PUBCHEM_SHAPE_SELFOVERLAP>
403.061

> <PUBCHEM_SHAPE_VOLUME>
117.8

> <PUBCHEM_COORDINATE_TYPE>
2
5
10

$$$$
