94282
  -OEChem-11232109443D

 30 29  0     0  0  0  0  0  0999 V2000
    4.0625   -1.7444   -0.8669 O   0  0  0  0  0  0  0  0  0  0  0  0
    3.6961   -1.1246    1.2982 O   0  0  0  0  0  0  0  0  0  0  0  0
   -2.4543    0.7296    0.2538 C   0  0  0  0  0  0  0  0  0  0  0  0
   -1.0020    0.7076   -0.2307 C   0  0  0  0  0  0  0  0  0  0  0  0
   -3.2535   -0.5096   -0.1596 C   0  0  0  0  0  0  0  0  0  0  0  0
   -0.2748    2.0020    0.1498 C   0  0  0  0  0  0  0  0  0  0  0  0
   -4.7226   -0.4546    0.2607 C   0  0  0  0  0  0  0  0  0  0  0  0
    1.1767    2.0533   -0.3387 C   0  0  0  0  0  0  0  0  0  0  0  0
   -5.4673   -1.7122   -0.1612 C   0  0  0  0  0  0  0  0  0  0  0  0
    2.0352    0.9575    0.2268 C   0  0  0  0  0  0  0  0  0  0  0  0
    2.6860    0.0672   -0.5338 C   0  0  0  0  0  0  0  0  0  0  0  0
    3.5181   -0.9717    0.1017 C   0  0  0  0  0  0  0  0  0  0  0  0
   -2.4720    0.8212    1.3469 H   0  0  0  0  0  0  0  0  0  0  0  0
   -2.9527    1.6213   -0.1465 H   0  0  0  0  0  0  0  0  0  0  0  0
   -0.4953   -0.1603    0.2065 H   0  0  0  0  0  0  0  0  0  0  0  0
   -0.9798    0.5833   -1.3200 H   0  0  0  0  0  0  0  0  0  0  0  0
   -3.1966   -0.6247   -1.2493 H   0  0  0  0  0  0  0  0  0  0  0  0
   -2.7825   -1.3992    0.2767 H   0  0  0  0  0  0  0  0  0  0  0  0
   -0.2963    2.1237    1.2403 H   0  0  0  0  0  0  0  0  0  0  0  0
   -0.8131    2.8594   -0.2730 H   0  0  0  0  0  0  0  0  0  0  0  0
   -4.7929   -0.3406    1.3485 H   0  0  0  0  0  0  0  0  0  0  0  0
   -5.2052    0.4202   -0.1899 H   0  0  0  0  0  0  0  0  0  0  0  0
    1.1875    2.0289   -1.4355 H   0  0  0  0  0  0  0  0  0  0  0  0
    1.6129    3.0154   -0.0442 H   0  0  0  0  0  0  0  0  0  0  0  0
   -5.4406   -1.8380   -1.2483 H   0  0  0  0  0  0  0  0  0  0  0  0
   -5.0266   -2.6023    0.2992 H   0  0  0  0  0  0  0  0  0  0  0  0
   -6.5155   -1.6533    0.1483 H   0  0  0  0  0  0  0  0  0  0  0  0
    2.1206    0.9240    1.3101 H   0  0  0  0  0  0  0  0  0  0  0  0
    2.6172    0.0888   -1.6160 H   0  0  0  0  0  0  0  0  0  0  0  0
    4.6277   -2.4551   -0.4956 H   0  0  0  0  0  0  0  0  0  0  0  0
  1 12  1  0  0  0  0
  1 30  1  0  0  0  0
  2 12  2  0  0  0  0
  3  4  1  0  0  0  0
  3  5  1  0  0  0  0
  3 13  1  0  0  0  0
  3 14  1  0  0  0  0
  4  6  1  0  0  0  0
  4 15  1  0  0  0  0
  4 16  1  0  0  0  0
  5  7  1  0  0  0  0
  5 17  1  0  0  0  0
  5 18  1  0  0  0  0
  6  8  1  0  0  0  0
  6 19  1  0  0  0  0
  6 20  1  0  0  0  0
  7  9  1  0  0  0  0
  7 21  1  0  0  0  0
  7 22  1  0  0  0  0
  8 10  1  0  0  0  0
  8 23  1  0  0  0  0
  8 24  1  0  0  0  0
  9 25  1  0  0  0  0
  9 26  1  0  0  0  0
  9 27  1  0  0  0  0
 10 11  2  3  0  0  0
 10 28  1  0  0  0  0
 11 12  1  0  0  0  0
 11 29  1  0  0  0  0
M  END
> <PUBCHEM_COMPOUND_CID>
94282

> <PUBCHEM_CONFORMER_RMSD>
0.8

> <PUBCHEM_CONFORMER_DIVERSEORDER>
2
41
52
21
55
5
16
18
59
50
31
57
36
20
28
61
27
22
60
4
26
43
34
30
63
40
8
39
56
1
24
10
44
14
7
17
54
11
3
12
15
48
9
53
46
32
33
37
25
38
45
42
51
19
29
49
13
23
47
35
58
6
62

> <PUBCHEM_MMFF94_PARTIAL_CHARGES>
9
1 -0.65
10 -0.29
11 -0.14
12 0.71
2 -0.57
28 0.15
29 0.15
30 0.5
8 0.14

> <PUBCHEM_EFFECTIVE_ROTOR_COUNT>
7

> <PUBCHEM_PHARMACOPHORE_FEATURES>
4
1 1 acceptor
1 2 acceptor
1 9 hydrophobe
3 1 2 12 anion

> <PUBCHEM_HEAVY_ATOM_COUNT>
12

> <PUBCHEM_ATOM_DEF_STEREO_COUNT>
0

> <PUBCHEM_ATOM_UDEF_STEREO_COUNT>
0

> <PUBCHEM_BOND_DEF_STEREO_COUNT>
0

> <PUBCHEM_BOND_UDEF_STEREO_COUNT>
1

> <PUBCHEM_ISOTOPIC_ATOM_COUNT>
0

> <PUBCHEM_COMPONENT_COUNT>
1

> <PUBCHEM_CACTVS_TAUTO_COUNT>
1

> <PUBCHEM_CONFORMER_ID>
0001704A00000002

> <PUBCHEM_MMFF94_ENERGY>
3.8624

> <PUBCHEM_FEATURE_SELFOVERLAP>
20.353

> <PUBCHEM_SHAPE_FINGERPRINT>
100836 57 10519983794342793514
11159736 12 18059005228882103671
11858739 19 18413102888577776055
122479 349 10663809793417314316
13255334 9 18117282669232409611
13533116 47 18269558420056467739
1420 369 18341895194983758375
14251710 61 18412266112129797319
14252887 29 18342175587623442520
14455015 7 18114752641795537435
15342168 16 10735875088684583945
15342816 4 18260551082951277518
15477762 27 18335422408533038900
177051 138 18412827979730516837
1798214 20 18186799171164208835
193927 3 18409457985487299227
20281475 54 18339649944879382420
20388580 30 18261115187787022164
20645477 70 18335138747517779077
20671657 53 18186237329391802493
20767249 142 18410576175680074967
20871998 22 18411134744798821128
21354914 76 18412545444181668725
22485316 2 18410291436749797885
23016692 55 18270415922370712580
23500284 214 10952043463972316525
23590187 173 10809342269276897502
32948 21 17749097873493253941
351380 3 18411420609158028087
43658 37 8070023350558559525
4416823 128 18410857642029843372
59345605 21 18040429997120652395
59345606 38 8934991564612937031
94968 8 18334296474434775664

> <PUBCHEM_SHAPE_MULTIPOLES>
235.22
10.77
2.13
0.82
9.37
0.31
-0.08
-8.8
-0.13
-0.96
0.12
-0.58
-0.18
-0.2

> <PUBCHEM_SHAPE_SELFOVERLAP>
431.709

> <PUBCHEM_SHAPE_VOLUME>
148.9

> <PUBCHEM_COORDINATE_TYPE>
2
5
10

$$$$
