94310
  -OEChem-11232108493D

 39 39  0     1  0  0  0  0  0999 V2000
    0.4575   -0.2746    0.0206 O   0  0  0  0  0  0  0  0  0  0  0  0
    1.5127   -2.0661    1.0085 O   0  0  0  0  0  0  0  0  0  0  0  0
   -1.9353    0.0968   -0.1617 C   0  0  1  0  0  0  0  0  0  0  0  0
   -3.2935   -0.6195   -0.0060 C   0  0  0  0  0  0  0  0  0  0  0  0
   -1.8812    1.4975    0.4886 C   0  0  0  0  0  0  0  0  0  0  0  0
   -4.4680    0.1538   -0.6145 C   0  0  0  0  0  0  0  0  0  0  0  0
   -0.8127   -0.8256    0.3410 C   0  0  0  0  0  0  0  0  0  0  0  0
   -5.8126   -0.5572   -0.4396 C   0  0  0  0  0  0  0  0  0  0  0  0
   -2.1008    1.5205    1.9950 C   0  0  0  0  0  0  0  0  0  0  0  0
   -6.9865    0.2175   -1.0187 C   0  0  0  0  0  0  0  0  0  0  0  0
    1.5411   -0.9999    0.4138 C   0  0  0  0  0  0  0  0  0  0  0  0
    2.8011   -0.3189    0.0226 C   0  0  0  0  0  0  0  0  0  0  0  0
    3.9157   -1.0845   -0.2520 C   0  0  0  0  0  0  0  0  0  0  0  0
    2.8183    1.0587   -0.0538 C   0  0  0  0  0  0  0  0  0  0  0  0
    5.0995   -0.4444   -0.6192 C   0  0  0  0  0  0  0  0  0  0  0  0
    4.0020    1.6988   -0.4210 C   0  0  0  0  0  0  0  0  0  0  0  0
    5.1427    0.9472   -0.7037 C   0  0  0  0  0  0  0  0  0  0  0  0
   -1.7630    0.2565   -1.2356 H   0  0  0  0  0  0  0  0  0  0  0  0
   -3.4940   -0.8193    1.0534 H   0  0  0  0  0  0  0  0  0  0  0  0
   -3.2382   -1.5997   -0.4972 H   0  0  0  0  0  0  0  0  0  0  0  0
   -2.6136    2.1585    0.0123 H   0  0  0  0  0  0  0  0  0  0  0  0
   -0.9039    1.9501    0.2788 H   0  0  0  0  0  0  0  0  0  0  0  0
   -4.2801    0.3195   -1.6822 H   0  0  0  0  0  0  0  0  0  0  0  0
   -4.5487    1.1407   -0.1463 H   0  0  0  0  0  0  0  0  0  0  0  0
   -0.8978   -1.8019   -0.1528 H   0  0  0  0  0  0  0  0  0  0  0  0
   -0.8894   -0.9852    1.4224 H   0  0  0  0  0  0  0  0  0  0  0  0
   -5.7670   -1.5425   -0.9185 H   0  0  0  0  0  0  0  0  0  0  0  0
   -5.9962   -0.7305    0.6275 H   0  0  0  0  0  0  0  0  0  0  0  0
   -3.0837    1.1247    2.2650 H   0  0  0  0  0  0  0  0  0  0  0  0
   -2.0495    2.5516    2.3603 H   0  0  0  0  0  0  0  0  0  0  0  0
   -1.3349    0.9477    2.5251 H   0  0  0  0  0  0  0  0  0  0  0  0
   -7.9187   -0.3357   -0.8683 H   0  0  0  0  0  0  0  0  0  0  0  0
   -7.0870    1.1937   -0.5341 H   0  0  0  0  0  0  0  0  0  0  0  0
   -6.8548    0.3791   -2.0932 H   0  0  0  0  0  0  0  0  0  0  0  0
    3.8936   -2.1686   -0.1930 H   0  0  0  0  0  0  0  0  0  0  0  0
    1.9485    1.6673    0.1745 H   0  0  0  0  0  0  0  0  0  0  0  0
    5.9875   -1.0296   -0.8399 H   0  0  0  0  0  0  0  0  0  0  0  0
    4.0369    2.7825   -0.4838 H   0  0  0  0  0  0  0  0  0  0  0  0
    6.0645    1.4456   -0.9890 H   0  0  0  0  0  0  0  0  0  0  0  0
  1  7  1  0  0  0  0
  1 11  1  0  0  0  0
  2 11  2  0  0  0  0
  3  4  1  0  0  0  0
  3  5  1  0  0  0  0
  3  7  1  0  0  0  0
  3 18  1  0  0  0  0
  4  6  1  0  0  0  0
  4 19  1  0  0  0  0
  4 20  1  0  0  0  0
  5  9  1  0  0  0  0
  5 21  1  0  0  0  0
  5 22  1  0  0  0  0
  6  8  1  0  0  0  0
  6 23  1  0  0  0  0
  6 24  1  0  0  0  0
  7 25  1  0  0  0  0
  7 26  1  0  0  0  0
  8 10  1  0  0  0  0
  8 27  1  0  0  0  0
  8 28  1  0  0  0  0
  9 29  1  0  0  0  0
  9 30  1  0  0  0  0
  9 31  1  0  0  0  0
 10 32  1  0  0  0  0
 10 33  1  0  0  0  0
 10 34  1  0  0  0  0
 11 12  1  0  0  0  0
 12 13  2  0  0  0  0
 12 14  1  0  0  0  0
 13 15  1  0  0  0  0
 13 35  1  0  0  0  0
 14 16  2  0  0  0  0
 14 36  1  0  0  0  0
 15 17  2  0  0  0  0
 15 37  1  0  0  0  0
 16 17  1  0  0  0  0
 16 38  1  0  0  0  0
 17 39  1  0  0  0  0
M  END
> <PUBCHEM_COMPOUND_CID>
94310

> <PUBCHEM_CONFORMER_RMSD>
0.8

> <PUBCHEM_CONFORMER_DIVERSEORDER>
1
217
165
304
228
20
154
160
283
251
67
271
253
53
270
208
52
143
232
211
103
277
303
274
175
115
293
87
278
28
284
48
222
258
287
249
279
276
295
152
272
32
84
97
69
134
117
78
50
229
157
25
281
122
108
14
195
180
268
288
218
197
262
172
19
130
77
123
239
141
213
114
292
223
254
23
190
91
247
101
290
110
135
299
131
171
116
121
72
289
236
182
214
3
233
76
205
296
49
163
265
267
224
257
147
225
189
209
235
164
159
118
241
93
16
124
240
94
161
212
286
138
244
132
231
62
193
285
173
191
120
149
275
242
137
206
210
46
200
11
142
151
260
203
153
65
179
111
177
261
166
184
71
47
220
9
80
302
238
282
168
150
230
5
156
280
187
127
85
178
95
21
107
162
246
60
44
264
22
188
112
51
266
83
81
144
298
41
102
252
109
2
119
234
202
31
89
125
66
73
245
34
194
300
128
181
26
148
133
6
106
207
170
96
301
99
79
243
63
219
155
186
74
35
105
86
199
294
37
15
215
55
237
13
24
18
263
139
227
176
12
250
259
61
136
54
8
68
36
216
43
269
192
273
90
297
198
169
38
167
221
70
4
33
82
10
126
185
100
98
92
248
196
145
113
64
29
88
146
42
39
104
255
129
58
256
305
45
201
75
7
291
158
57
204
27
226
183
30
140
59
17
174
40
56

> <PUBCHEM_MMFF94_PARTIAL_CHARGES>
15
1 -0.43
11 0.63
12 0.09
13 -0.15
14 -0.15
15 -0.15
16 -0.15
17 -0.15
2 -0.57
35 0.15
36 0.15
37 0.15
38 0.15
39 0.15
7 0.28

> <PUBCHEM_EFFECTIVE_ROTOR_COUNT>
8

> <PUBCHEM_PHARMACOPHORE_FEATURES>
5
1 10 hydrophobe
1 2 acceptor
1 9 hydrophobe
5 3 4 5 6 8 hydrophobe
6 12 13 14 15 16 17 rings

> <PUBCHEM_HEAVY_ATOM_COUNT>
17

> <PUBCHEM_ATOM_DEF_STEREO_COUNT>
0

> <PUBCHEM_ATOM_UDEF_STEREO_COUNT>
1

> <PUBCHEM_BOND_DEF_STEREO_COUNT>
0

> <PUBCHEM_BOND_UDEF_STEREO_COUNT>
0

> <PUBCHEM_ISOTOPIC_ATOM_COUNT>
0

> <PUBCHEM_COMPONENT_COUNT>
1

> <PUBCHEM_CACTVS_TAUTO_COUNT>
1

> <PUBCHEM_CONFORMER_ID>
0001706600000001

> <PUBCHEM_MMFF94_ENERGY>
31.3275

> <PUBCHEM_FEATURE_SELFOVERLAP>
25.374

> <PUBCHEM_SHAPE_FINGERPRINT>
10366900 7 17385730162232854456
11128504 68 18131067160119400133
117890 112 15357693085287078071
12236239 1 18343021077847706605
12714333 28 17603581928967404967
12730499 353 18040438784581775923
12788726 201 17988642948566760835
13533116 47 15575261113064974840
13551218 46 8790616900520413481
13899415 154 17703511082186819705
14252887 29 10015592709631254724
14528608 73 18335136509892526591
15048467 5 18114176428961851149
15375358 24 15936414428964910131
15501527 24 18413387653014093095
15527383 91 9511460018162149806
17834072 33 18413669119174191439
17834076 25 15502373426439444543
1813 80 13830140507070925746
18186145 218 18335714819134249326
18222031 100 16988549226719899987
200 152 18343581837330838129
20300324 65 17917435319275803337
20645477 70 18261952947292141262
21424621 283 16371282209397310557
221357 26 18341896277437037892
2297311 6 16845578608436313881
23035841 295 17775284976460531671
23352939 185 18411980265531221593
23402539 116 17918273143189231005
23402655 69 18410292514607026878
23557571 272 16630254631686884785
23559900 14 18270675480108361785
2871803 45 18408040701956016304
29717793 49 18060424590486305294
3545911 37 18186803590574877550
474 4 18114468950140961012
59755656 520 17385718127571467851

> <PUBCHEM_SHAPE_MULTIPOLES>
338.11
14.57
1.61
1.09
13.32
0.25
-0.36
0.53
6.52
-1
-0.47
0.64
0.28
-0.93

> <PUBCHEM_SHAPE_SELFOVERLAP>
671.218

> <PUBCHEM_SHAPE_VOLUME>
200.9

> <PUBCHEM_COORDINATE_TYPE>
2
5
10

$$$$
