94373
  -OEChem-11232108413D

 37 36  0     0  0  0  0  0  0999 V2000
    3.6962   -0.1971    1.3112 O   0  0  0  0  0  0  0  0  0  0  0  0
   -2.3132    1.9537   -0.6803 C   0  0  0  0  0  0  0  0  0  0  0  0
   -3.5525    1.0972   -0.3874 C   0  0  0  0  0  0  0  0  0  0  0  0
   -1.0619    1.4785    0.0329 C   0  0  0  0  0  0  0  0  0  0  0  0
   -3.3686   -0.3402   -0.7893 C   0  0  0  0  0  0  0  0  0  0  0  0
   -3.4449   -1.4367   -0.0118 C   0  0  0  0  0  0  0  0  0  0  0  0
   -1.1426    1.5056    1.5390 C   0  0  0  0  0  0  0  0  0  0  0  0
    0.0748    1.0741   -0.5688 C   0  0  0  0  0  0  0  0  0  0  0  0
   -3.2316   -2.8048   -0.6034 C   0  0  0  0  0  0  0  0  0  0  0  0
   -3.7177   -1.4367    1.4654 C   0  0  0  0  0  0  0  0  0  0  0  0
    1.2966    0.6380    0.0753 C   0  0  0  0  0  0  0  0  0  0  0  0
    2.3771    0.2536   -0.6180 C   0  0  0  0  0  0  0  0  0  0  0  0
    4.7727   -0.5806   -0.8167 C   0  0  0  0  0  0  0  0  0  0  0  0
    3.6209   -0.1763    0.0856 C   0  0  0  0  0  0  0  0  0  0  0  0
    5.9946   -1.0285   -0.0337 C   0  0  0  0  0  0  0  0  0  0  0  0
   -2.5156    2.9922   -0.3897 H   0  0  0  0  0  0  0  0  0  0  0  0
   -2.1373    1.9719   -1.7639 H   0  0  0  0  0  0  0  0  0  0  0  0
   -4.3929    1.5001   -0.9667 H   0  0  0  0  0  0  0  0  0  0  0  0
   -3.8400    1.2074    0.6609 H   0  0  0  0  0  0  0  0  0  0  0  0
   -3.1635   -0.4815   -1.8502 H   0  0  0  0  0  0  0  0  0  0  0  0
   -1.3594    0.5079    1.9321 H   0  0  0  0  0  0  0  0  0  0  0  0
   -1.9388    2.1794    1.8750 H   0  0  0  0  0  0  0  0  0  0  0  0
   -0.2268    1.8859    2.0021 H   0  0  0  0  0  0  0  0  0  0  0  0
    0.0934    1.0762   -1.6578 H   0  0  0  0  0  0  0  0  0  0  0  0
   -4.1217   -3.4247   -0.4543 H   0  0  0  0  0  0  0  0  0  0  0  0
   -3.0291   -2.7685   -1.6791 H   0  0  0  0  0  0  0  0  0  0  0  0
   -2.3799   -3.2970   -0.1224 H   0  0  0  0  0  0  0  0  0  0  0  0
   -4.6223   -2.0163    1.6785 H   0  0  0  0  0  0  0  0  0  0  0  0
   -3.8631   -0.4425    1.8906 H   0  0  0  0  0  0  0  0  0  0  0  0
   -2.8810   -1.8987    2.0003 H   0  0  0  0  0  0  0  0  0  0  0  0
    1.3235    0.6167    1.1595 H   0  0  0  0  0  0  0  0  0  0  0  0
    2.3940    0.2515   -1.7030 H   0  0  0  0  0  0  0  0  0  0  0  0
    5.0389    0.2770   -1.4442 H   0  0  0  0  0  0  0  0  0  0  0  0
    4.4373   -1.3997   -1.4621 H   0  0  0  0  0  0  0  0  0  0  0  0
    6.3623   -0.2262    0.6146 H   0  0  0  0  0  0  0  0  0  0  0  0
    5.7616   -1.8911    0.5994 H   0  0  0  0  0  0  0  0  0  0  0  0
    6.8013   -1.3132   -0.7163 H   0  0  0  0  0  0  0  0  0  0  0  0
  1 14  2  0  0  0  0
  2  3  1  0  0  0  0
  2  4  1  0  0  0  0
  2 16  1  0  0  0  0
  2 17  1  0  0  0  0
  3  5  1  0  0  0  0
  3 18  1  0  0  0  0
  3 19  1  0  0  0  0
  4  7  1  0  0  0  0
  4  8  2  3  0  0  0
  5  6  2  0  0  0  0
  5 20  1  0  0  0  0
  6  9  1  0  0  0  0
  6 10  1  0  0  0  0
  7 21  1  0  0  0  0
  7 22  1  0  0  0  0
  7 23  1  0  0  0  0
  8 11  1  0  0  0  0
  8 24  1  0  0  0  0
  9 25  1  0  0  0  0
  9 26  1  0  0  0  0
  9 27  1  0  0  0  0
 10 28  1  0  0  0  0
 10 29  1  0  0  0  0
 10 30  1  0  0  0  0
 11 12  2  3  0  0  0
 11 31  1  0  0  0  0
 12 14  1  0  0  0  0
 12 32  1  0  0  0  0
 13 14  1  0  0  0  0
 13 15  1  0  0  0  0
 13 33  1  0  0  0  0
 13 34  1  0  0  0  0
 15 35  1  0  0  0  0
 15 36  1  0  0  0  0
 15 37  1  0  0  0  0
M  END
> <PUBCHEM_COMPOUND_CID>
94373

> <PUBCHEM_CONFORMER_RMSD>
0.8

> <PUBCHEM_CONFORMER_DIVERSEORDER>
1
44
15
138
130
49
34
120
66
152
143
59
145
27
103
97
47
24
31
41
122
107
139
3
134
144
101
72
100
40
104
108
63
128
98
67
136
70
17
81
64
87
46
60
2
157
121
43
68
45
55
30
71
21
53
76
35
123
153
154
9
147
86
54
58
133
119
129
91
5
42
125
6
62
52
82
90
131
149
14
140
73
106
65
57
61
89
13
109
39
159
37
56
26
36
92
155
160
161
96
12
113
132
25
117
148
50
141
69
22
51
74
83
7
150
16
93
28
32
95
11
142
116
112
114
23
115
38
127
84
48
146
20
10
29
156
80
110
94
118
99
78
105
88
135
137
4
8
33
77
124
158
111
18
102
75
79
19
126
85
151

> <PUBCHEM_MMFF94_PARTIAL_CHARGES>
18
1 -0.57
10 0.14
11 -0.15
12 -0.14
13 0.06
14 0.49
2 0.14
20 0.15
24 0.15
3 0.14
31 0.15
32 0.15
4 -0.28
5 -0.29
6 -0.28
7 0.14
8 -0.15
9 0.14

> <PUBCHEM_EFFECTIVE_ROTOR_COUNT>
6

> <PUBCHEM_PHARMACOPHORE_FEATURES>
5
1 1 acceptor
1 15 hydrophobe
1 7 hydrophobe
3 6 9 10 hydrophobe
4 2 3 4 5 hydrophobe

> <PUBCHEM_HEAVY_ATOM_COUNT>
15

> <PUBCHEM_ATOM_DEF_STEREO_COUNT>
0

> <PUBCHEM_ATOM_UDEF_STEREO_COUNT>
0

> <PUBCHEM_BOND_DEF_STEREO_COUNT>
0

> <PUBCHEM_BOND_UDEF_STEREO_COUNT>
2

> <PUBCHEM_ISOTOPIC_ATOM_COUNT>
0

> <PUBCHEM_COMPONENT_COUNT>
1

> <PUBCHEM_CACTVS_TAUTO_COUNT>
2

> <PUBCHEM_CONFORMER_ID>
000170A500000001

> <PUBCHEM_MMFF94_ENERGY>
16.0897

> <PUBCHEM_FEATURE_SELFOVERLAP>
25.393

> <PUBCHEM_SHAPE_FINGERPRINT>
107951 10 17531242808751178259
10968037 57 18199189658414662927
11046707 91 18410857672036332252
11370993 144 16629978645678397886
11552529 35 15553301800047577814
12757275 245 18409166606215575909
13167823 11 18186802457214967430
13994607 96 9079116635841259547
14123260 362 9943813287265478435
14251718 22 18335423474396708116
14251731 5 18194681695010692895
14251732 14 18268170767536170174
14251732 16 18341046407179146056
14251758 9 9799427594187458348
14251764 30 16445055226136681963
15209294 21 12391515269541388500
15880784 105 16630230498233837831
17834072 33 18333456448068327756
18186145 218 14707205556385774189
193927 3 18336839661767247158
200 152 17530687593664377316
20621476 21 18271262555384280166
20621476 51 17986947642748906063
21054139 6 17894910742114450546
21061003 4 17561081432135087785
21079973 296 18343013406709185140
221490 88 18336269049829695932
23402539 116 16660645116299599612
23402655 69 16515959259929306940
23557571 272 18200313191573142012
23559900 14 18340194267591477976
26918003 58 18060415785687608780
270888 7 9006243225709049399
27216 239 10591769809441320623
351380 3 18187650231761109267
559249 180 18187921708132692655
58051976 100 18113897139427460693
59345606 119 18413107273069394190
7062679 117 18334017190155084836
7495541 125 18272930532135495008

> <PUBCHEM_SHAPE_MULTIPOLES>
302.82
11.26
2.29
1.2
15.74
0.84
-0.44
6.47
0.3
-3.26
0.15
-0.47
-0.02
0.27

> <PUBCHEM_SHAPE_SELFOVERLAP>
573.348

> <PUBCHEM_SHAPE_VOLUME>
187.9

> <PUBCHEM_COORDINATE_TYPE>
2
5
10

$$$$
