94569
  -OEChem-11232109133D

 35 35  0     1  0  0  0  0  0999 V2000
   -0.1179   -0.7424    0.3200 O   0  0  0  0  0  0  0  0  0  0  0  0
   -0.8377    1.5155    0.0788 O   0  0  0  0  0  0  0  0  0  0  0  0
   -1.4175   -1.2813    0.0374 C   0  0  0  0  0  0  0  0  0  0  0  0
   -2.4932   -0.2187    0.3328 C   0  0  0  0  0  0  0  0  0  0  0  0
   -2.1541    1.1249   -0.3175 C   0  0  1  0  0  0  0  0  0  0  0  0
    0.1244    0.5268   -0.2904 C   0  0  1  0  0  0  0  0  0  0  0  0
    1.4845    1.0096    0.1877 C   0  0  0  0  0  0  0  0  0  0  0  0
   -1.6019   -2.4752    0.9829 C   0  0  0  0  0  0  0  0  0  0  0  0
   -1.4869   -1.7930   -1.4086 C   0  0  0  0  0  0  0  0  0  0  0  0
    2.5915    0.0236   -0.1844 C   0  0  0  0  0  0  0  0  0  0  0  0
   -3.1216    2.2144    0.1233 C   0  0  0  0  0  0  0  0  0  0  0  0
    3.9612    0.5289    0.2681 C   0  0  0  0  0  0  0  0  0  0  0  0
    5.0692   -0.4331   -0.1300 C   0  0  0  0  0  0  0  0  0  0  0  0
   -2.5295   -0.0626    1.4200 H   0  0  0  0  0  0  0  0  0  0  0  0
   -3.4853   -0.5645    0.0195 H   0  0  0  0  0  0  0  0  0  0  0  0
   -2.1895    1.0519   -1.4109 H   0  0  0  0  0  0  0  0  0  0  0  0
    0.1479    0.4276   -1.3823 H   0  0  0  0  0  0  0  0  0  0  0  0
    1.4662    1.1376    1.2780 H   0  0  0  0  0  0  0  0  0  0  0  0
    1.6944    1.9997   -0.2353 H   0  0  0  0  0  0  0  0  0  0  0  0
   -0.8285   -3.2327    0.8100 H   0  0  0  0  0  0  0  0  0  0  0  0
   -1.4983   -2.1652    2.0292 H   0  0  0  0  0  0  0  0  0  0  0  0
   -2.5829   -2.9446    0.8558 H   0  0  0  0  0  0  0  0  0  0  0  0
   -1.3842   -0.9889   -2.1427 H   0  0  0  0  0  0  0  0  0  0  0  0
   -0.6696   -2.4957   -1.6076 H   0  0  0  0  0  0  0  0  0  0  0  0
   -2.4369   -2.3014   -1.6051 H   0  0  0  0  0  0  0  0  0  0  0  0
    2.4023   -0.9538    0.2750 H   0  0  0  0  0  0  0  0  0  0  0  0
    2.5980   -0.1262   -1.2711 H   0  0  0  0  0  0  0  0  0  0  0  0
   -2.8536    3.1707   -0.3389 H   0  0  0  0  0  0  0  0  0  0  0  0
   -4.1508    1.9684   -0.1549 H   0  0  0  0  0  0  0  0  0  0  0  0
   -3.0761    2.3672    1.2073 H   0  0  0  0  0  0  0  0  0  0  0  0
    3.9694    0.6581    1.3566 H   0  0  0  0  0  0  0  0  0  0  0  0
    4.1623    1.5104   -0.1769 H   0  0  0  0  0  0  0  0  0  0  0  0
    5.1089   -0.5579   -1.2168 H   0  0  0  0  0  0  0  0  0  0  0  0
    4.9160   -1.4174    0.3237 H   0  0  0  0  0  0  0  0  0  0  0  0
    6.0396   -0.0525    0.2038 H   0  0  0  0  0  0  0  0  0  0  0  0
  1  3  1  0  0  0  0
  1  6  1  0  0  0  0
  2  5  1  0  0  0  0
  2  6  1  0  0  0  0
  3  4  1  0  0  0  0
  3  8  1  0  0  0  0
  3  9  1  0  0  0  0
  4  5  1  0  0  0  0
  4 14  1  0  0  0  0
  4 15  1  0  0  0  0
  5 11  1  0  0  0  0
  5 16  1  0  0  0  0
  6  7  1  0  0  0  0
  6 17  1  0  0  0  0
  7 10  1  0  0  0  0
  7 18  1  0  0  0  0
  7 19  1  0  0  0  0
  8 20  1  0  0  0  0
  8 21  1  0  0  0  0
  8 22  1  0  0  0  0
  9 23  1  0  0  0  0
  9 24  1  0  0  0  0
  9 25  1  0  0  0  0
 10 12  1  0  0  0  0
 10 26  1  0  0  0  0
 10 27  1  0  0  0  0
 11 28  1  0  0  0  0
 11 29  1  0  0  0  0
 11 30  1  0  0  0  0
 12 13  1  0  0  0  0
 12 31  1  0  0  0  0
 12 32  1  0  0  0  0
 13 33  1  0  0  0  0
 13 34  1  0  0  0  0
 13 35  1  0  0  0  0
M  END
> <PUBCHEM_COMPOUND_CID>
94569

> <PUBCHEM_CONFORMER_RMSD>
0.6

> <PUBCHEM_CONFORMER_DIVERSEORDER>
5
87
60
98
13
91
34
95
61
94
45
88
31
54
90
72
46
50
83
93
51
86
37
82
19
33
80
29
56
25
24
79
84
81
70
63
3
74
64
48
66
23
57
69
92
10
59
89
67
75
26
97
53
49
12
42
47
96
58
38
85
8
78
40
55
39
76
11
77
43
1
52
71
41
16
9
65
4
68
28
20
35
73
14
21
44
15
2
7
18
6
30
62
27
22
17
36
32

> <PUBCHEM_MMFF94_PARTIAL_CHARGES>
5
1 -0.56
2 -0.56
3 0.28
5 0.28
6 0.56

> <PUBCHEM_EFFECTIVE_ROTOR_COUNT>
4.2

> <PUBCHEM_PHARMACOPHORE_FEATURES>
5
1 1 acceptor
1 13 hydrophobe
1 2 acceptor
3 3 8 9 hydrophobe
6 1 2 3 4 5 6 rings

> <PUBCHEM_HEAVY_ATOM_COUNT>
13

> <PUBCHEM_ATOM_DEF_STEREO_COUNT>
0

> <PUBCHEM_ATOM_UDEF_STEREO_COUNT>
2

> <PUBCHEM_BOND_DEF_STEREO_COUNT>
0

> <PUBCHEM_BOND_UDEF_STEREO_COUNT>
0

> <PUBCHEM_ISOTOPIC_ATOM_COUNT>
0

> <PUBCHEM_COMPONENT_COUNT>
1

> <PUBCHEM_CACTVS_TAUTO_COUNT>
1

> <PUBCHEM_CONFORMER_ID>
0001716900000005

> <PUBCHEM_MMFF94_ENERGY>
21.7576

> <PUBCHEM_FEATURE_SELFOVERLAP>
25.406

> <PUBCHEM_SHAPE_FINGERPRINT>
11357001 24 18262245520426993131
124424 183 17989203733661576576
12500047 106 18341044138734832728
12932764 1 17773039867883957976
13024252 1 17968090958492401575
13380535 76 18340486664442642871
14577589 140 18272653467356922470
14965852 173 18409448124369072428
15375358 24 17917991642711748460
16945 1 18263378004634569277
20279233 1 17632300064657230916
20524608 308 18272928332136170031
20645464 45 18131639971243892964
20645476 183 17967533441403525945
20645477 56 18411421687405880752
20645477 70 17203333248354222958
20711985 365 18338518650361467868
20871998 184 18271531999787731575
21524375 3 18339921494460926637
2306618 200 17775291585586901835
23402539 116 18272080617857227501
23419403 2 14402897094995139063
23559900 14 18342736287794605384
23598291 2 17894922870658697300
2748010 2 18193855747002987999
366044 4 18340767035982192325
559249 180 18337384921420516490
5706482 22 18409164377238332003
58051976 100 18335143094335802284
6333449 129 18342736312467267157
69090 78 18272928310766828613
81228 2 18193261108733734849
9709674 26 18341617010215974718

> <PUBCHEM_SHAPE_MULTIPOLES>
255.8
6.9
2.29
0.88
11.41
0.47
0.14
-1.04
-0.16
-2.69
-0.19
-0.37
0.46
0.11

> <PUBCHEM_SHAPE_SELFOVERLAP>
491.009

> <PUBCHEM_SHAPE_VOLUME>
156.7

> <PUBCHEM_COORDINATE_TYPE>
2
5
10

$$$$
