94886
  -OEChem-11232109233D

 35 35  0     1  0  0  0  0  0999 V2000
   -2.3135   -1.2977    0.2950 O   0  0  0  0  0  0  0  0  0  0  0  0
   -1.4809    0.8921    0.4685 O   0  0  0  0  0  0  0  0  0  0  0  0
   -1.2096   -0.4921    0.7295 C   0  0  0  0  0  0  0  0  0  0  0  0
   -3.3841   -0.3630    0.1269 C   0  0  1  0  0  0  0  0  0  0  0  0
   -2.6604    0.8833   -0.3438 C   0  0  1  0  0  0  0  0  0  0  0  0
    0.0454   -0.9209   -0.0059 C   0  0  0  0  0  0  0  0  0  0  0  0
    1.2574   -0.0961    0.4267 C   0  0  0  0  0  0  0  0  0  0  0  0
    2.5281   -0.5541   -0.2931 C   0  0  0  0  0  0  0  0  0  0  0  0
   -4.4014   -0.9047   -0.8569 C   0  0  0  0  0  0  0  0  0  0  0  0
   -3.4374    2.1695   -0.1495 C   0  0  0  0  0  0  0  0  0  0  0  0
    3.7465    0.2477    0.1701 C   0  0  0  0  0  0  0  0  0  0  0  0
    5.0501   -0.1875   -0.5027 C   0  0  0  0  0  0  0  0  0  0  0  0
    6.2599    0.6235   -0.0649 C   0  0  0  0  0  0  0  0  0  0  0  0
   -1.0919   -0.6193    1.8115 H   0  0  0  0  0  0  0  0  0  0  0  0
   -3.8475   -0.2130    1.1102 H   0  0  0  0  0  0  0  0  0  0  0  0
   -2.3370    0.7895   -1.3880 H   0  0  0  0  0  0  0  0  0  0  0  0
   -0.1031   -0.8048   -1.0872 H   0  0  0  0  0  0  0  0  0  0  0  0
    0.2258   -1.9888    0.1668 H   0  0  0  0  0  0  0  0  0  0  0  0
    1.0877    0.9661    0.2145 H   0  0  0  0  0  0  0  0  0  0  0  0
    1.3962   -0.1916    1.5106 H   0  0  0  0  0  0  0  0  0  0  0  0
    2.4019   -0.4382   -1.3763 H   0  0  0  0  0  0  0  0  0  0  0  0
    2.6982   -1.6198   -0.0986 H   0  0  0  0  0  0  0  0  0  0  0  0
   -5.2225   -0.1993   -1.0130 H   0  0  0  0  0  0  0  0  0  0  0  0
   -3.9359   -1.1233   -1.8242 H   0  0  0  0  0  0  0  0  0  0  0  0
   -4.8171   -1.8495   -0.4909 H   0  0  0  0  0  0  0  0  0  0  0  0
   -2.8218    3.0307   -0.4304 H   0  0  0  0  0  0  0  0  0  0  0  0
   -4.3498    2.1812   -0.7525 H   0  0  0  0  0  0  0  0  0  0  0  0
   -3.7085    2.3104    0.9025 H   0  0  0  0  0  0  0  0  0  0  0  0
    3.8558    0.1469    1.2571 H   0  0  0  0  0  0  0  0  0  0  0  0
    3.5762    1.3123   -0.0331 H   0  0  0  0  0  0  0  0  0  0  0  0
    5.2352   -1.2461   -0.2848 H   0  0  0  0  0  0  0  0  0  0  0  0
    4.9429   -0.1014   -1.5906 H   0  0  0  0  0  0  0  0  0  0  0  0
    7.1606    0.2695   -0.5759 H   0  0  0  0  0  0  0  0  0  0  0  0
    6.4210    0.5318    1.0139 H   0  0  0  0  0  0  0  0  0  0  0  0
    6.1263    1.6833   -0.3034 H   0  0  0  0  0  0  0  0  0  0  0  0
  1  3  1  0  0  0  0
  1  4  1  0  0  0  0
  2  3  1  0  0  0  0
  2  5  1  0  0  0  0
  3  6  1  0  0  0  0
  3 14  1  0  0  0  0
  4  5  1  0  0  0  0
  4  9  1  0  0  0  0
  4 15  1  0  0  0  0
  5 10  1  0  0  0  0
  5 16  1  0  0  0  0
  6  7  1  0  0  0  0
  6 17  1  0  0  0  0
  6 18  1  0  0  0  0
  7  8  1  0  0  0  0
  7 19  1  0  0  0  0
  7 20  1  0  0  0  0
  8 11  1  0  0  0  0
  8 21  1  0  0  0  0
  8 22  1  0  0  0  0
  9 23  1  0  0  0  0
  9 24  1  0  0  0  0
  9 25  1  0  0  0  0
 10 26  1  0  0  0  0
 10 27  1  0  0  0  0
 10 28  1  0  0  0  0
 11 12  1  0  0  0  0
 11 29  1  0  0  0  0
 11 30  1  0  0  0  0
 12 13  1  0  0  0  0
 12 31  1  0  0  0  0
 12 32  1  0  0  0  0
 13 33  1  0  0  0  0
 13 34  1  0  0  0  0
 13 35  1  0  0  0  0
M  END
> <PUBCHEM_COMPOUND_CID>
94886

> <PUBCHEM_CONFORMER_RMSD>
0.6

> <PUBCHEM_CONFORMER_DIVERSEORDER>
1
165
200
170
120
81
201
36
194
175
5
191
14
20
193
192
70
136
182
45
143
11
189
178
28
146
7
195
109
43
74
199
39
154
53
25
198
23
190
125
148
94
166
149
54
197
59
153
97
93
196
2
179
103
156
73
155
8
140
181
57
16
137
160
169
3
172
85
151
89
184
26
88
79
177
64
161
115
12
173
130
83
183
202
10
187
163
145
13
147
119
35
128
138
69
84
100
164
49
126
47
30
117
139
98
62
180
185
113
135
110
158
111
176
75
123
162
52
46
141
38
188
63
150
56
112
105
71
42
101
171
99
60
50
144
9
27
159
157
29
95
77
174
129
122
67
41
96
152
68
31
102
80
114
167
133
40
108
132
104
82
15
142
168
118
134
22
116
78
18
48
131
34
58
121
186
90
66
86
124
55
24
19
4
61
87
65
92
72
33
32
51
44
127
17
76
6
106
37
91
21
107

> <PUBCHEM_MMFF94_PARTIAL_CHARGES>
5
1 -0.56
2 -0.56
3 0.56
4 0.28
5 0.28

> <PUBCHEM_EFFECTIVE_ROTOR_COUNT>
6

> <PUBCHEM_PHARMACOPHORE_FEATURES>
5
1 1 acceptor
1 13 hydrophobe
1 2 acceptor
5 1 2 3 4 5 rings
5 6 7 8 11 12 hydrophobe

> <PUBCHEM_HEAVY_ATOM_COUNT>
13

> <PUBCHEM_ATOM_DEF_STEREO_COUNT>
0

> <PUBCHEM_ATOM_UDEF_STEREO_COUNT>
2

> <PUBCHEM_BOND_DEF_STEREO_COUNT>
0

> <PUBCHEM_BOND_UDEF_STEREO_COUNT>
0

> <PUBCHEM_ISOTOPIC_ATOM_COUNT>
0

> <PUBCHEM_COMPONENT_COUNT>
1

> <PUBCHEM_CACTVS_TAUTO_COUNT>
1

> <PUBCHEM_CONFORMER_ID>
000172A600000001

> <PUBCHEM_MMFF94_ENERGY>
13.4478

> <PUBCHEM_FEATURE_SELFOVERLAP>
25.412

> <PUBCHEM_SHAPE_FINGERPRINT>
10014705 185 18334576798028298933
10680689 15 18413394249693710074
11128504 68 14405181803285790752
11315181 36 17749112223015685232
114248 4 17989488537279957662
124424 183 12324241676339467463
13288520 33 10519980470017098217
13675066 3 12251907001429566538
14123238 8 17989208166183721150
14251718 22 18202282533088718310
14251764 75 17194053197706472097
14252887 29 13623525732841273880
14350574 20 17275101777380338183
15501527 16 18410860927637750313
17834072 33 18272368698588565198
17834076 25 17458343052339144670
18186145 218 16702291356547260874
19489759 90 18334292076472634666
200 152 16487256564789178858
20300324 65 18412825785160412661
20645477 56 18410014295500493073
20645477 70 17489318443332337262
20767249 213 17749108915563735414
20828058 44 9151172052124805720
20871999 31 18272360958962539261
21426921 1 18411136948527870543
23035841 295 10591770887631098948
23402539 116 18413385428089269076
23402655 69 18201719501188091884
23557571 272 18201726145222989037
23559900 14 18339915038697579232
23590187 156 18342451569621662010
26918003 58 11386363747046612006
3268164 11 18410566284575854773
351380 3 13254799032014037764
42788 4 18410575098355076334
441001 317 18408322181380675144
49783359 22 8790881870169790728

> <PUBCHEM_SHAPE_MULTIPOLES>
255.8
12.12
1.41
0.78
17.02
0.63
-0.03
2.02
-2.32
-1.84
-0.06
-0.2
-0.07
-0.01

> <PUBCHEM_SHAPE_SELFOVERLAP>
484.636

> <PUBCHEM_SHAPE_VOLUME>
160.1

> <PUBCHEM_COORDINATE_TYPE>
2
5
10

$$$$
