94935
  -OEChem-11232109033D

 28 29  0     0  0  0  0  0  0999 V2000
    1.1189    0.0627    0.0660 O   0  0  0  0  0  0  0  0  0  0  0  0
    3.6987   -1.0577   -0.0854 O   0  0  0  0  0  0  0  0  0  0  0  0
   -0.5737    0.7892   -1.3225 O   0  0  0  0  0  0  0  0  0  0  0  0
   -1.0904   -0.3124    0.7844 C   0  0  0  0  0  0  0  0  0  0  0  0
   -2.5421   -0.2056    0.4591 C   0  0  0  0  0  0  0  0  0  0  0  0
    2.0916    0.5499   -0.8643 C   0  0  0  0  0  0  0  0  0  0  0  0
    3.4396    0.2482   -0.2873 C   0  0  0  0  0  0  0  0  0  0  0  0
   -0.1860    0.2510   -0.2944 C   0  0  0  0  0  0  0  0  0  0  0  0
   -3.2607    0.9277    0.8400 C   0  0  0  0  0  0  0  0  0  0  0  0
   -3.1813   -1.2390   -0.2256 C   0  0  0  0  0  0  0  0  0  0  0  0
   -4.6185    1.0274    0.5362 C   0  0  0  0  0  0  0  0  0  0  0  0
   -4.5391   -1.1394   -0.5296 C   0  0  0  0  0  0  0  0  0  0  0  0
    4.4741    1.0452    0.0807 C   0  0  0  0  0  0  0  0  0  0  0  0
   -5.2575   -0.0060   -0.1485 C   0  0  0  0  0  0  0  0  0  0  0  0
    5.4733    0.1632    0.5566 C   0  0  0  0  0  0  0  0  0  0  0  0
    4.9533   -1.1044    0.4346 C   0  0  0  0  0  0  0  0  0  0  0  0
   -0.8789    0.2188    1.7205 H   0  0  0  0  0  0  0  0  0  0  0  0
   -0.8241   -1.3650    0.9414 H   0  0  0  0  0  0  0  0  0  0  0  0
    1.9673    1.6301   -0.9990 H   0  0  0  0  0  0  0  0  0  0  0  0
    1.9772    0.0393   -1.8269 H   0  0  0  0  0  0  0  0  0  0  0  0
   -2.7740    1.7408    1.3722 H   0  0  0  0  0  0  0  0  0  0  0  0
   -2.6324   -2.1264   -0.5297 H   0  0  0  0  0  0  0  0  0  0  0  0
    4.5219    2.1230    0.0220 H   0  0  0  0  0  0  0  0  0  0  0  0
   -5.1779    1.9101    0.8323 H   0  0  0  0  0  0  0  0  0  0  0  0
   -5.0368   -1.9438   -1.0633 H   0  0  0  0  0  0  0  0  0  0  0  0
   -6.3146    0.0717   -0.3854 H   0  0  0  0  0  0  0  0  0  0  0  0
    6.4503    0.4191    0.9404 H   0  0  0  0  0  0  0  0  0  0  0  0
    5.3288   -2.0915    0.6613 H   0  0  0  0  0  0  0  0  0  0  0  0
  1  6  1  0  0  0  0
  1  8  1  0  0  0  0
  2  7  1  0  0  0  0
  2 16  1  0  0  0  0
  3  8  2  0  0  0  0
  4  5  1  0  0  0  0
  4  8  1  0  0  0  0
  4 17  1  0  0  0  0
  4 18  1  0  0  0  0
  5  9  2  0  0  0  0
  5 10  1  0  0  0  0
  6  7  1  0  0  0  0
  6 19  1  0  0  0  0
  6 20  1  0  0  0  0
  7 13  2  0  0  0  0
  9 11  1  0  0  0  0
  9 21  1  0  0  0  0
 10 12  2  0  0  0  0
 10 22  1  0  0  0  0
 11 14  2  0  0  0  0
 11 24  1  0  0  0  0
 12 14  1  0  0  0  0
 12 25  1  0  0  0  0
 13 15  1  0  0  0  0
 13 23  1  0  0  0  0
 14 26  1  0  0  0  0
 15 16  2  0  0  0  0
 15 27  1  0  0  0  0
 16 28  1  0  0  0  0
M  END
> <PUBCHEM_COMPOUND_CID>
94935

> <PUBCHEM_CONFORMER_RMSD>
0.6

> <PUBCHEM_CONFORMER_DIVERSEORDER>
1
78
106
90
167
100
45
31
103
24
143
138
37
2
89
65
168
120
13
96
164
98
145
94
23
142
101
9
49
59
42
88
20
117
3
99
118
86
173
85
77
107
133
136
39
170
14
130
93
22
4
176
56
144
52
70
97
8
82
79
30
41
58
80
12
67
108
7
172
54
114
153
53
6
177
68
73
43
151
19
5
40
47
60
36
157
21
64
178
95
175
17
48
61
75
69
129
46
11
18
44
92
57
160
10
81
50
51
158
124
55
171
91
132
66
16
135
104
62
162
76
116
179
139
128
109
137
111
155
148
26
127
29
156
165
121
134
15
33
122
163
141
113
126
25
149
150
146
169
74
110
140
72
84
32
63
83
161
105
123
166
112
119
35
131
28
115
147
87
27
34
71
102
38
152
125
154
174
159

> <PUBCHEM_MMFF94_PARTIAL_CHARGES>
24
1 -0.43
10 -0.15
11 -0.15
12 -0.15
13 -0.15
14 -0.15
15 -0.15
16 -0.01
2 -0.28
21 0.15
22 0.15
23 0.15
24 0.15
25 0.15
26 0.15
27 0.15
28 0.15
3 -0.57
4 0.2
5 -0.14
6 0.46
7 -0.04
8 0.66
9 -0.15

> <PUBCHEM_EFFECTIVE_ROTOR_COUNT>
5

> <PUBCHEM_PHARMACOPHORE_FEATURES>
4
1 2 acceptor
1 3 acceptor
5 2 7 13 15 16 rings
6 5 9 10 11 12 14 rings

> <PUBCHEM_HEAVY_ATOM_COUNT>
16

> <PUBCHEM_ATOM_DEF_STEREO_COUNT>
0

> <PUBCHEM_ATOM_UDEF_STEREO_COUNT>
0

> <PUBCHEM_BOND_DEF_STEREO_COUNT>
0

> <PUBCHEM_BOND_UDEF_STEREO_COUNT>
0

> <PUBCHEM_ISOTOPIC_ATOM_COUNT>
0

> <PUBCHEM_COMPONENT_COUNT>
1

> <PUBCHEM_CACTVS_TAUTO_COUNT>
1

> <PUBCHEM_CONFORMER_ID>
000172D700000001

> <PUBCHEM_MMFF94_ENERGY>
23.4634

> <PUBCHEM_FEATURE_SELFOVERLAP>
20.297

> <PUBCHEM_SHAPE_FINGERPRINT>
10670039 82 15338575907239384288
10680689 15 14201401607769372865
10912923 1 18342181080738817024
11315181 36 18341333365795171001
11401426 45 18333449854728843671
117890 112 17917997139863913393
12107183 9 17622170061697706122
12236239 1 18335139795827363987
12670546 56 18410290294061546584
13167823 11 18341892999976057710
13533116 47 18271244928796026146
13675066 3 17530972401113690481
13760787 5 17240490229406182028
14123238 8 15482953860548777504
1420 363 14261355768744158260
17834072 33 18343581875700746192
17834072 8 15502372335523091023
18186145 218 14923946798732333788
19141452 34 18186522128525435595
19489759 90 17989207036327656633
200 152 18409727369803822479
204376 136 14692571026386382829
20645477 70 17458345234810369674
21728266 224 18130782408520850071
220451 1 18411990160539252838
22224240 67 18334568084768322250
22485316 2 18412826893277805778
23175994 123 16009034994890084181
23402539 116 18343016688554835869
23536379 177 18411699872400225995
23559900 14 18272645800555449768
23590187 198 18335422352587466795
300161 21 18412822495247002066
314173 85 17385725785777146804
34797466 226 17203057386177574636
351380 180 18273496775316086592
42 15 18409731755303067812
4214541 1 18342458131973104681
42788 4 18343021094610805368
4990 188 10881395426972428080
5104073 3 18411985796746869033
522135 26 8935004768017592652
5374978 207 17749105608745242796
542803 24 18411703192272892944
573450 72 18342737403673745155
67856867 119 18270398437432925025
7495541 125 17417806287932428400
9971528 1 18040155132578658276

> <PUBCHEM_SHAPE_MULTIPOLES>
311.66
13.78
1.19
0.92
5.7
0.13
0.08
0.78
-1.55
-0.33
-0.03
-0.08
-0.1
-0.68

> <PUBCHEM_SHAPE_SELFOVERLAP>
662.306

> <PUBCHEM_SHAPE_VOLUME>
174.2

> <PUBCHEM_COORDINATE_TYPE>
2
5
10

$$$$
