95008
  -OEChem-11232109053D

 30 30  0     1  0  0  0  0  0999 V2000
   -0.1246    1.8040   -0.1101 O   0  0  0  0  0  0  0  0  0  0  0  0
    2.0306    0.0033    0.1380 O   0  0  0  0  0  0  0  0  0  0  0  0
   -2.4103    1.8426   -0.4437 O   0  0  0  0  0  0  0  0  0  0  0  0
    4.0924   -0.3669   -0.8361 O   0  0  0  0  0  0  0  0  0  0  0  0
   -0.0142    0.6626   -0.9695 C   0  0  2  0  0  0  0  0  0  0  0  0
   -0.8230   -0.4606   -0.4140 C   0  0  0  0  0  0  0  0  0  0  0  0
    1.4746    0.3189   -1.1306 C   0  0  0  0  0  0  0  0  0  0  0  0
   -1.4143   -1.3861   -1.2739 C   0  0  0  0  0  0  0  0  0  0  0  0
   -0.9878   -0.5859    0.9656 C   0  0  0  0  0  0  0  0  0  0  0  0
   -2.1706   -2.4367   -0.7546 C   0  0  0  0  0  0  0  0  0  0  0  0
   -1.7441   -1.6368    1.4848 C   0  0  0  0  0  0  0  0  0  0  0  0
   -2.3355   -2.5621    0.6248 C   0  0  0  0  0  0  0  0  0  0  0  0
   -1.3875    2.2867    0.0602 C   0  0  0  0  0  0  0  0  0  0  0  0
    3.3588   -0.3242    0.1422 C   0  0  0  0  0  0  0  0  0  0  0  0
   -1.3497    3.4715    0.9773 C   0  0  0  0  0  0  0  0  0  0  0  0
    3.8051   -0.6304    1.5398 C   0  0  0  0  0  0  0  0  0  0  0  0
   -0.3991    0.9547   -1.9562 H   0  0  0  0  0  0  0  0  0  0  0  0
    1.5975   -0.5333   -1.8097 H   0  0  0  0  0  0  0  0  0  0  0  0
    2.0037    1.1893   -1.5371 H   0  0  0  0  0  0  0  0  0  0  0  0
   -1.2920   -1.3003   -2.3503 H   0  0  0  0  0  0  0  0  0  0  0  0
   -0.5209    0.1031    1.6641 H   0  0  0  0  0  0  0  0  0  0  0  0
   -2.6305   -3.1577   -1.4241 H   0  0  0  0  0  0  0  0  0  0  0  0
   -1.8680   -1.7379    2.5591 H   0  0  0  0  0  0  0  0  0  0  0  0
   -2.9230   -3.3811    1.0293 H   0  0  0  0  0  0  0  0  0  0  0  0
   -0.7333    4.2603    0.5390 H   0  0  0  0  0  0  0  0  0  0  0  0
   -0.9575    3.1725    1.9526 H   0  0  0  0  0  0  0  0  0  0  0  0
   -2.3642    3.8569    1.1134 H   0  0  0  0  0  0  0  0  0  0  0  0
    3.2359   -1.4765    1.9330 H   0  0  0  0  0  0  0  0  0  0  0  0
    3.6715    0.2508    2.1722 H   0  0  0  0  0  0  0  0  0  0  0  0
    4.8658   -0.8972    1.5320 H   0  0  0  0  0  0  0  0  0  0  0  0
  1  5  1  0  0  0  0
  1 13  1  0  0  0  0
  2  7  1  0  0  0  0
  2 14  1  0  0  0  0
  3 13  2  0  0  0  0
  4 14  2  0  0  0  0
  5  6  1  0  0  0  0
  5  7  1  0  0  0  0
  5 17  1  0  0  0  0
  6  8  2  0  0  0  0
  6  9  1  0  0  0  0
  7 18  1  0  0  0  0
  7 19  1  0  0  0  0
  8 10  1  0  0  0  0
  8 20  1  0  0  0  0
  9 11  2  0  0  0  0
  9 21  1  0  0  0  0
 10 12  2  0  0  0  0
 10 22  1  0  0  0  0
 11 12  1  0  0  0  0
 11 23  1  0  0  0  0
 12 24  1  0  0  0  0
 13 15  1  0  0  0  0
 14 16  1  0  0  0  0
 15 25  1  0  0  0  0
 15 26  1  0  0  0  0
 15 27  1  0  0  0  0
 16 28  1  0  0  0  0
 16 29  1  0  0  0  0
 16 30  1  0  0  0  0
M  END
> <PUBCHEM_COMPOUND_CID>
95008

> <PUBCHEM_CONFORMER_RMSD>
0.8

> <PUBCHEM_CONFORMER_DIVERSEORDER>
1
52
32
31
40
7
11
38
57
25
8
26
47
28
22
24
60
29
35
16
27
39
45
51
55
18
14
37
58
21
36
61
49
42
62
59
34
10
46
50
20
4
56
19
23
41
54
63
9
2
5
44
12
48
33
6
15
3
30
13
53
43
17

> <PUBCHEM_MMFF94_PARTIAL_CHARGES>
21
1 -0.43
10 -0.15
11 -0.15
12 -0.15
13 0.66
14 0.66
15 0.06
16 0.06
2 -0.43
20 0.15
21 0.15
22 0.15
23 0.15
24 0.15
3 -0.57
4 -0.57
5 0.42
6 -0.14
7 0.28
8 -0.15
9 -0.15

> <PUBCHEM_EFFECTIVE_ROTOR_COUNT>
6

> <PUBCHEM_PHARMACOPHORE_FEATURES>
3
1 3 acceptor
1 4 acceptor
6 6 8 9 10 11 12 rings

> <PUBCHEM_HEAVY_ATOM_COUNT>
16

> <PUBCHEM_ATOM_DEF_STEREO_COUNT>
0

> <PUBCHEM_ATOM_UDEF_STEREO_COUNT>
1

> <PUBCHEM_BOND_DEF_STEREO_COUNT>
0

> <PUBCHEM_BOND_UDEF_STEREO_COUNT>
0

> <PUBCHEM_ISOTOPIC_ATOM_COUNT>
0

> <PUBCHEM_COMPONENT_COUNT>
1

> <PUBCHEM_CACTVS_TAUTO_COUNT>
1

> <PUBCHEM_CONFORMER_ID>
0001732000000001

> <PUBCHEM_MMFF94_ENERGY>
34.3285

> <PUBCHEM_FEATURE_SELFOVERLAP>
15.223

> <PUBCHEM_SHAPE_FINGERPRINT>
11357001 24 18408889516194772089
12326174 3 17331983010173082293
12553582 1 18194971961542949998
12716301 132 17760411770253161711
12788726 201 18408045117108413859
12824470 246 17386004034911788266
13275264 69 18338242659978808240
136203 1 18412267211631129001
14817 1 18194994905252392549
15906896 17 18336551508216396971
16945 1 18339652152465913141
20361792 2 18196938996165755678
20524608 308 18270119002754928046
20871998 184 18341061747657550478
21296965 67 18265894855138021319
21524375 3 17908134374312425636
21731228 192 17979078180246024232
22112679 90 18053974975383867829
23402539 116 18273208691143972975
23419403 2 17129555072963393193
23500284 5 18114180864982956138
23526113 38 17536847220774513679
23598294 1 18268169680360862876
23728640 28 18264762173504309338
257057 1 18123466339484513703
305870 269 17619068330632092125
3071541 236 18336825273558181813
3086196 2 18337376223805475314
6049 1 17847064385429566232
81228 2 18410292493010916460
90316 7 18342747354917719723

> <PUBCHEM_SHAPE_MULTIPOLES>
305.8
5.15
3.33
1.41
7.41
2.81
0.21
-2.85
0.77
-3.63
0.82
0.13
-0.38
-0.28

> <PUBCHEM_SHAPE_SELFOVERLAP>
626.479

> <PUBCHEM_SHAPE_VOLUME>
174.8

> <PUBCHEM_COORDINATE_TYPE>
2
5
10

$$$$
