95136
  -OEChem-11232109023D

 32 33  0     0  0  0  0  0  0999 V2000
   -2.2612    1.2564    0.0264 O   0  0  0  0  0  0  0  0  0  0  0  0
   -2.2659   -1.1104   -0.0532 O   0  0  0  0  0  0  0  0  0  0  0  0
    3.2144    0.2135    1.4551 O   0  0  0  0  0  0  0  0  0  0  0  0
    3.7907    0.2564   -0.8845 O   0  0  0  0  0  0  0  0  0  0  0  0
   -0.1926    0.1073    0.0969 C   0  0  0  0  0  0  0  0  0  0  0  0
   -1.6276    0.0535    0.5024 C   0  0  0  0  0  0  0  0  0  0  0  0
    2.1163    0.1819    0.6515 C   0  0  0  0  0  0  0  0  0  0  0  0
    0.8041    0.1321    1.0753 C   0  0  0  0  0  0  0  0  0  0  0  0
    2.4455    0.2065   -0.6844 C   0  0  0  0  0  0  0  0  0  0  0  0
    0.1438    0.1325   -1.2681 C   0  0  0  0  0  0  0  0  0  0  0  0
    1.4806    0.1827   -1.6704 C   0  0  0  0  0  0  0  0  0  0  0  0
    4.2714    0.2601    0.4750 C   0  0  0  0  0  0  0  0  0  0  0  0
   -3.6433    1.3244    0.3531 C   0  0  0  0  0  0  0  0  0  0  0  0
   -1.6633   -2.3259    0.3723 C   0  0  0  0  0  0  0  0  0  0  0  0
   -4.2147    2.6177   -0.1876 C   0  0  0  0  0  0  0  0  0  0  0  0
   -2.3984   -3.4886   -0.2598 C   0  0  0  0  0  0  0  0  0  0  0  0
   -1.7341    0.0243    1.5945 H   0  0  0  0  0  0  0  0  0  0  0  0
    0.5641    0.1131    2.1329 H   0  0  0  0  0  0  0  0  0  0  0  0
   -0.6344    0.1130   -2.0274 H   0  0  0  0  0  0  0  0  0  0  0  0
    1.7441    0.2023   -2.7217 H   0  0  0  0  0  0  0  0  0  0  0  0
    4.9224   -0.6099    0.6195 H   0  0  0  0  0  0  0  0  0  0  0  0
    4.8600    1.1705    0.6367 H   0  0  0  0  0  0  0  0  0  0  0  0
   -4.1800    0.4804   -0.0927 H   0  0  0  0  0  0  0  0  0  0  0  0
   -3.7661    1.2897    1.4410 H   0  0  0  0  0  0  0  0  0  0  0  0
   -0.6143   -2.3861    0.0673 H   0  0  0  0  0  0  0  0  0  0  0  0
   -1.7215   -2.4020    1.4639 H   0  0  0  0  0  0  0  0  0  0  0  0
   -5.2791    2.7039    0.0482 H   0  0  0  0  0  0  0  0  0  0  0  0
   -3.6880    3.4789    0.2368 H   0  0  0  0  0  0  0  0  0  0  0  0
   -4.0878    2.6709   -1.2739 H   0  0  0  0  0  0  0  0  0  0  0  0
   -1.9656   -4.4427    0.0537 H   0  0  0  0  0  0  0  0  0  0  0  0
   -3.4573   -3.4726    0.0190 H   0  0  0  0  0  0  0  0  0  0  0  0
   -2.3559   -3.4232   -1.3522 H   0  0  0  0  0  0  0  0  0  0  0  0
  1  6  1  0  0  0  0
  1 13  1  0  0  0  0
  2  6  1  0  0  0  0
  2 14  1  0  0  0  0
  3  7  1  0  0  0  0
  3 12  1  0  0  0  0
  4  9  1  0  0  0  0
  4 12  1  0  0  0  0
  5  6  1  0  0  0  0
  5  8  2  0  0  0  0
  5 10  1  0  0  0  0
  6 17  1  0  0  0  0
  7  8  1  0  0  0  0
  7  9  2  0  0  0  0
  8 18  1  0  0  0  0
  9 11  1  0  0  0  0
 10 11  2  0  0  0  0
 10 19  1  0  0  0  0
 11 20  1  0  0  0  0
 12 21  1  0  0  0  0
 12 22  1  0  0  0  0
 13 15  1  0  0  0  0
 13 23  1  0  0  0  0
 13 24  1  0  0  0  0
 14 16  1  0  0  0  0
 14 25  1  0  0  0  0
 14 26  1  0  0  0  0
 15 27  1  0  0  0  0
 15 28  1  0  0  0  0
 15 29  1  0  0  0  0
 16 30  1  0  0  0  0
 16 31  1  0  0  0  0
 16 32  1  0  0  0  0
M  END
> <PUBCHEM_COMPOUND_CID>
95136

> <PUBCHEM_CONFORMER_RMSD>
0.6

> <PUBCHEM_CONFORMER_DIVERSEORDER>
1
21
5
4
9
6
3
10
16
8
18
20
19
13
12
14
17
11
15
2
7

> <PUBCHEM_MMFF94_PARTIAL_CHARGES>
17
1 -0.56
10 -0.15
11 -0.15
12 0.56
13 0.28
14 0.28
18 0.15
19 0.15
2 -0.56
20 0.15
3 -0.36
4 -0.36
5 -0.14
6 0.7
7 0.08
8 -0.15
9 0.08

> <PUBCHEM_EFFECTIVE_ROTOR_COUNT>
5.6

> <PUBCHEM_PHARMACOPHORE_FEATURES>
6
1 1 acceptor
1 2 acceptor
1 3 acceptor
1 4 acceptor
5 3 4 7 9 12 rings
6 5 7 8 9 10 11 rings

> <PUBCHEM_HEAVY_ATOM_COUNT>
16

> <PUBCHEM_ATOM_DEF_STEREO_COUNT>
0

> <PUBCHEM_ATOM_UDEF_STEREO_COUNT>
0

> <PUBCHEM_BOND_DEF_STEREO_COUNT>
0

> <PUBCHEM_BOND_UDEF_STEREO_COUNT>
0

> <PUBCHEM_ISOTOPIC_ATOM_COUNT>
0

> <PUBCHEM_COMPONENT_COUNT>
1

> <PUBCHEM_CACTVS_TAUTO_COUNT>
1

> <PUBCHEM_CONFORMER_ID>
000173A000000001

> <PUBCHEM_MMFF94_ENERGY>
34.9657

> <PUBCHEM_FEATURE_SELFOVERLAP>
30.639

> <PUBCHEM_SHAPE_FINGERPRINT>
12138202 97 18273500056966291935
124424 183 17703792479490102268
12500047 106 18412545392425822302
12532896 13 18342175510635719455
13583140 156 17917138494624027586
13760787 19 18408045109104002514
14178000 22 18337665313848891989
14178342 30 18335409201640368778
14289901 80 18265332992222555472
15852999 172 18129670703227375255
15885798 251 18051700142262714555
15906896 17 18114195159040279843
16752209 62 18336819884007520419
16945 1 18410013251422260080
17539 30 18198614618286377311
18186145 218 17986405394906609073
18522853 266 18410295813247671442
18534176 82 18130793368981561265
19026448 4 18202288034983944432
19026448 5 18187365471751199180
20279233 1 17632580448321825420
20524608 308 18413389856306286427
20645477 56 18411705374211510801
20645477 70 16558757776047441164
20715346 28 17561085860198487744
212916 134 18268135492442487305
21452121 199 17617374425864255247
21524375 3 18114465553038159697
22112679 90 17894918476432250236
23402539 116 18271235033017322293
23493267 7 18202289086960814426
23557571 272 18201726192546906316
23559900 14 18201164265581399398
23598288 3 17970087697510212819
23598291 2 17750245853246612750
298252 57 18261115119579073273
6992083 37 17894630366010622623
7364860 26 17691123734937727963
7615 1 17823419468792898156
77492 1 17676488388499138530
81228 2 18269000963192436995
88987 49 18338527416320998141

> <PUBCHEM_SHAPE_MULTIPOLES>
305.8
7.24
2.51
1.22
1.24
2.33
0.21
-3.48
-0.63
-5.07
0.14
0.95
-0.09
-0.02

> <PUBCHEM_SHAPE_SELFOVERLAP>
637.011

> <PUBCHEM_SHAPE_VOLUME>
174.7

> <PUBCHEM_COORDINATE_TYPE>
2
5
10

$$$$
