95266
  -OEChem-11232109223D

 36 37  0     1  0  0  0  0  0999 V2000
   -0.9795   -1.0380   -0.4234 O   0  0  0  0  0  0  0  0  0  0  0  0
   -0.8006    1.3362   -0.5003 O   0  0  0  0  0  0  0  0  0  0  0  0
   -2.2136   -1.0110    0.3082 C   0  0  0  0  0  0  0  0  0  0  0  0
   -2.3420    0.3295    1.0565 C   0  0  0  0  0  0  0  0  0  0  0  0
   -2.0679    1.5201    0.1343 C   0  0  1  0  0  0  0  0  0  0  0  0
   -0.7692    0.1154   -1.2407 C   0  0  1  0  0  0  0  0  0  0  0  0
   -2.1365   -2.1597    1.3222 C   0  0  0  0  0  0  0  0  0  0  0  0
   -3.4022   -1.2705   -0.6285 C   0  0  0  0  0  0  0  0  0  0  0  0
    0.6142   -0.0106   -1.8586 C   0  0  0  0  0  0  0  0  0  0  0  0
   -2.0190    2.8263    0.9145 C   0  0  0  0  0  0  0  0  0  0  0  0
    1.6945   -0.0605   -0.8098 C   0  0  0  0  0  0  0  0  0  0  0  0
    2.2768    1.1208   -0.3729 C   0  0  0  0  0  0  0  0  0  0  0  0
    2.0914   -1.2869   -0.2964 C   0  0  0  0  0  0  0  0  0  0  0  0
    3.2773    1.0744    0.5980 C   0  0  0  0  0  0  0  0  0  0  0  0
    3.0917   -1.3332    0.6747 C   0  0  0  0  0  0  0  0  0  0  0  0
    3.6846   -0.1525    1.1220 C   0  0  0  0  0  0  0  0  0  0  0  0
   -1.5879    0.3475    1.8557 H   0  0  0  0  0  0  0  0  0  0  0  0
   -3.3249    0.4227    1.5328 H   0  0  0  0  0  0  0  0  0  0  0  0
   -2.8424    1.6058   -0.6369 H   0  0  0  0  0  0  0  0  0  0  0  0
   -1.5080    0.1512   -2.0499 H   0  0  0  0  0  0  0  0  0  0  0  0
   -2.0162   -3.1227    0.8123 H   0  0  0  0  0  0  0  0  0  0  0  0
   -1.2623   -2.0474    1.9741 H   0  0  0  0  0  0  0  0  0  0  0  0
   -3.0330   -2.2076    1.9490 H   0  0  0  0  0  0  0  0  0  0  0  0
   -3.5315   -0.4771   -1.3701 H   0  0  0  0  0  0  0  0  0  0  0  0
   -3.2513   -2.1971   -1.1942 H   0  0  0  0  0  0  0  0  0  0  0  0
   -4.3391   -1.3557   -0.0675 H   0  0  0  0  0  0  0  0  0  0  0  0
    0.8058    0.8363   -2.5299 H   0  0  0  0  0  0  0  0  0  0  0  0
    0.6707   -0.9174   -2.4744 H   0  0  0  0  0  0  0  0  0  0  0  0
   -1.8064    3.6637    0.2410 H   0  0  0  0  0  0  0  0  0  0  0  0
   -2.9672    3.0206    1.4248 H   0  0  0  0  0  0  0  0  0  0  0  0
   -1.2145    2.8113    1.6581 H   0  0  0  0  0  0  0  0  0  0  0  0
    1.9694    2.0821   -0.7745 H   0  0  0  0  0  0  0  0  0  0  0  0
    1.6384   -2.2133   -0.6380 H   0  0  0  0  0  0  0  0  0  0  0  0
    3.7392    1.9937    0.9461 H   0  0  0  0  0  0  0  0  0  0  0  0
    3.4090   -2.2885    1.0825 H   0  0  0  0  0  0  0  0  0  0  0  0
    4.4635   -0.1885    1.8780 H   0  0  0  0  0  0  0  0  0  0  0  0
  1  3  1  0  0  0  0
  1  6  1  0  0  0  0
  2  5  1  0  0  0  0
  2  6  1  0  0  0  0
  3  4  1  0  0  0  0
  3  7  1  0  0  0  0
  3  8  1  0  0  0  0
  4  5  1  0  0  0  0
  4 17  1  0  0  0  0
  4 18  1  0  0  0  0
  5 10  1  0  0  0  0
  5 19  1  0  0  0  0
  6  9  1  0  0  0  0
  6 20  1  0  0  0  0
  7 21  1  0  0  0  0
  7 22  1  0  0  0  0
  7 23  1  0  0  0  0
  8 24  1  0  0  0  0
  8 25  1  0  0  0  0
  8 26  1  0  0  0  0
  9 11  1  0  0  0  0
  9 27  1  0  0  0  0
  9 28  1  0  0  0  0
 10 29  1  0  0  0  0
 10 30  1  0  0  0  0
 10 31  1  0  0  0  0
 11 12  2  0  0  0  0
 11 13  1  0  0  0  0
 12 14  1  0  0  0  0
 12 32  1  0  0  0  0
 13 15  2  0  0  0  0
 13 33  1  0  0  0  0
 14 16  2  0  0  0  0
 14 34  1  0  0  0  0
 15 16  1  0  0  0  0
 15 35  1  0  0  0  0
 16 36  1  0  0  0  0
M  END
> <PUBCHEM_COMPOUND_CID>
95266

> <PUBCHEM_CONFORMER_RMSD>
0.6

> <PUBCHEM_CONFORMER_DIVERSEORDER>
4
16
28
22
27
25
15
6
20
39
32
2
17
35
29
19
3
34
30
11
9
38
12
14
24
21
33
36
23
37
10
31
26
7
18
8
1
13
5

> <PUBCHEM_MMFF94_PARTIAL_CHARGES>
17
1 -0.56
11 -0.14
12 -0.15
13 -0.15
14 -0.15
15 -0.15
16 -0.15
2 -0.56
3 0.28
32 0.15
33 0.15
34 0.15
35 0.15
36 0.15
5 0.28
6 0.56
9 0.14

> <PUBCHEM_EFFECTIVE_ROTOR_COUNT>
3.2

> <PUBCHEM_PHARMACOPHORE_FEATURES>
5
1 1 acceptor
1 2 acceptor
3 3 7 8 hydrophobe
6 1 2 3 4 5 6 rings
6 11 12 13 14 15 16 rings

> <PUBCHEM_HEAVY_ATOM_COUNT>
16

> <PUBCHEM_ATOM_DEF_STEREO_COUNT>
0

> <PUBCHEM_ATOM_UDEF_STEREO_COUNT>
2

> <PUBCHEM_BOND_DEF_STEREO_COUNT>
0

> <PUBCHEM_BOND_UDEF_STEREO_COUNT>
0

> <PUBCHEM_ISOTOPIC_ATOM_COUNT>
0

> <PUBCHEM_COMPONENT_COUNT>
1

> <PUBCHEM_CACTVS_TAUTO_COUNT>
1

> <PUBCHEM_CONFORMER_ID>
0001742200000004

> <PUBCHEM_MMFF94_ENERGY>
41.3181

> <PUBCHEM_FEATURE_SELFOVERLAP>
25.406

> <PUBCHEM_SHAPE_FINGERPRINT>
10366900 7 18341047523089863042
11127187 94 11891333127619281656
12077114 3 17845363367468107832
12251169 10 18336549326378454248
12382932 28 18263087771750433514
12633257 1 18192142703544733168
12696612 119 18411139143198377068
12824470 246 17314235651434791875
128993 33 13182480840445424858
13296909 8 18412820266111561189
13299463 15 8141787409589038476
13693222 15 18409448119704632218
13764800 53 17703518709236685345
14223421 5 18341054094278951896
14787075 74 17109895980778020516
15775835 57 17131544024830891634
16945 1 18269285710248132623
17834072 14 18261381291402646207
18186145 218 14189578550704147596
18981168 100 16343440409373973296
200 152 18339624737679249935
20361792 2 15791735195856207134
20525323 117 18412545413990186743
20871999 31 8214136357017791417
21501502 16 18409732841861364852
21524375 3 17835531423024182885
21713013 43 11314607380408315456
21731516 1 16226054362059806822
22445834 79 18113622235703116610
22959321 28 18059291071397318840
23402539 116 18130776872602969423
23419403 2 17981292850732242901
23532345 11 18334580126606523314
23557571 272 17917441938147226599
23559900 14 18410571773517658926
27216 239 17846202367701733440
6049 1 17488483913252130196
7097593 13 18264486183458993066
81228 2 18267325191359792077
9882013 296 17774722072918118582

> <PUBCHEM_SHAPE_MULTIPOLES>
317.53
6
2.27
1.41
2.68
0.82
-0.22
-0.8
1.93
-1.67
0.82
-0.01
-0.12
-0.23

> <PUBCHEM_SHAPE_SELFOVERLAP>
657.553

> <PUBCHEM_SHAPE_VOLUME>
180.6

> <PUBCHEM_COORDINATE_TYPE>
2
5
10

$$$$
