95395
  -OEChem-11232108523D

 32 33  0     1  0  0  0  0  0999 V2000
   -3.6355   -0.9997   -0.3767 O   0  0  0  0  0  0  0  0  0  0  0  0
   -1.0592    0.1390   -0.4040 O   0  0  0  0  0  0  0  0  0  0  0  0
    0.5221    0.8878    1.0990 O   0  0  0  0  0  0  0  0  0  0  0  0
   -3.4279    0.4189   -0.2692 C   0  0  1  0  0  0  0  0  0  0  0  0
   -4.6145    0.9625    0.5079 C   0  0  0  0  0  0  0  0  0  0  0  0
   -5.7204    0.0467    0.0470 C   0  0  0  0  0  0  0  0  0  0  0  0
   -5.0044   -1.2838   -0.0513 C   0  0  0  0  0  0  0  0  0  0  0  0
   -2.0924    0.6951    0.3938 C   0  0  0  0  0  0  0  0  0  0  0  0
    0.2189    0.3067    0.0660 C   0  0  0  0  0  0  0  0  0  0  0  0
    1.1907   -0.3376   -0.8939 C   0  0  0  0  0  0  0  0  0  0  0  0
    2.6233   -0.2344   -0.4380 C   0  0  0  0  0  0  0  0  0  0  0  0
    3.3837    0.8609   -0.8214 C   0  0  0  0  0  0  0  0  0  0  0  0
    3.1596   -1.2357    0.3582 C   0  0  0  0  0  0  0  0  0  0  0  0
    4.7097    0.9567   -0.3993 C   0  0  0  0  0  0  0  0  0  0  0  0
    4.4857   -1.1397    0.7803 C   0  0  0  0  0  0  0  0  0  0  0  0
    5.2607   -0.0435    0.4015 C   0  0  0  0  0  0  0  0  0  0  0  0
   -3.4257    0.8084   -1.2949 H   0  0  0  0  0  0  0  0  0  0  0  0
   -4.8100    2.0183    0.3011 H   0  0  0  0  0  0  0  0  0  0  0  0
   -4.4659    0.8449    1.5882 H   0  0  0  0  0  0  0  0  0  0  0  0
   -6.5804    0.0199    0.7212 H   0  0  0  0  0  0  0  0  0  0  0  0
   -6.0712    0.3571   -0.9444 H   0  0  0  0  0  0  0  0  0  0  0  0
   -5.0151   -1.8112    0.9085 H   0  0  0  0  0  0  0  0  0  0  0  0
   -5.4366   -1.9379   -0.8138 H   0  0  0  0  0  0  0  0  0  0  0  0
   -2.0598    0.2235    1.3834 H   0  0  0  0  0  0  0  0  0  0  0  0
   -1.9392    1.7753    0.4988 H   0  0  0  0  0  0  0  0  0  0  0  0
    1.0801    0.1407   -1.8746 H   0  0  0  0  0  0  0  0  0  0  0  0
    0.9178   -1.3935   -1.0105 H   0  0  0  0  0  0  0  0  0  0  0  0
    2.9633    1.6463   -1.4431 H   0  0  0  0  0  0  0  0  0  0  0  0
    2.5639   -2.0923    0.6605 H   0  0  0  0  0  0  0  0  0  0  0  0
    5.3129    1.8105   -0.6936 H   0  0  0  0  0  0  0  0  0  0  0  0
    4.9147   -1.9182    1.4045 H   0  0  0  0  0  0  0  0  0  0  0  0
    6.2930    0.0314    0.7304 H   0  0  0  0  0  0  0  0  0  0  0  0
  1  4  1  0  0  0  0
  1  7  1  0  0  0  0
  2  8  1  0  0  0  0
  2  9  1  0  0  0  0
  3  9  2  0  0  0  0
  4  5  1  0  0  0  0
  4  8  1  0  0  0  0
  4 17  1  0  0  0  0
  5  6  1  0  0  0  0
  5 18  1  0  0  0  0
  5 19  1  0  0  0  0
  6  7  1  0  0  0  0
  6 20  1  0  0  0  0
  6 21  1  0  0  0  0
  7 22  1  0  0  0  0
  7 23  1  0  0  0  0
  8 24  1  0  0  0  0
  8 25  1  0  0  0  0
  9 10  1  0  0  0  0
 10 11  1  0  0  0  0
 10 26  1  0  0  0  0
 10 27  1  0  0  0  0
 11 12  2  0  0  0  0
 11 13  1  0  0  0  0
 12 14  1  0  0  0  0
 12 28  1  0  0  0  0
 13 15  2  0  0  0  0
 13 29  1  0  0  0  0
 14 16  2  0  0  0  0
 14 30  1  0  0  0  0
 15 16  1  0  0  0  0
 15 31  1  0  0  0  0
 16 32  1  0  0  0  0
M  END
> <PUBCHEM_COMPOUND_CID>
95395

> <PUBCHEM_CONFORMER_RMSD>
0.8

> <PUBCHEM_CONFORMER_DIVERSEORDER>
1
7
96
3
123
105
72
135
79
91
119
23
9
38
131
63
18
26
47
62
2
44
120
104
122
117
65
74
110
6
31
45
67
19
69
8
109
40
43
132
126
48
85
10
87
61
112
30
92
29
115
108
50
100
28
32
20
101
136
25
124
11
13
134
52
128
88
125
78
127
17
33
42
37
56
75
121
66
94
70
89
111
99
118
113
77
34
93
22
73
57
68
46
107
14
5
60
97
116
49
103
21
15
53
86
41
83
95
80
130
35
16
76
82
98
81
4
106
59
12
39
54
58
64
24
51
129
90
133
84
55
71
36
27
102
114

> <PUBCHEM_MMFF94_PARTIAL_CHARGES>
19
1 -0.56
10 0.2
11 -0.14
12 -0.15
13 -0.15
14 -0.15
15 -0.15
16 -0.15
2 -0.43
28 0.15
29 0.15
3 -0.57
30 0.15
31 0.15
32 0.15
4 0.28
7 0.28
8 0.28
9 0.66

> <PUBCHEM_EFFECTIVE_ROTOR_COUNT>
6

> <PUBCHEM_PHARMACOPHORE_FEATURES>
4
1 1 acceptor
1 3 acceptor
5 1 4 5 6 7 rings
6 11 12 13 14 15 16 rings

> <PUBCHEM_HEAVY_ATOM_COUNT>
16

> <PUBCHEM_ATOM_DEF_STEREO_COUNT>
0

> <PUBCHEM_ATOM_UDEF_STEREO_COUNT>
1

> <PUBCHEM_BOND_DEF_STEREO_COUNT>
0

> <PUBCHEM_BOND_UDEF_STEREO_COUNT>
0

> <PUBCHEM_ISOTOPIC_ATOM_COUNT>
0

> <PUBCHEM_COMPONENT_COUNT>
1

> <PUBCHEM_CACTVS_TAUTO_COUNT>
1

> <PUBCHEM_CONFORMER_ID>
000174A300000001

> <PUBCHEM_MMFF94_ENERGY>
31.6731

> <PUBCHEM_FEATURE_SELFOVERLAP>
20.297

> <PUBCHEM_SHAPE_FINGERPRINT>
10595046 47 18334015016421877325
10912923 1 18410016528651307081
11287383 113 17894916251665583809
12107183 9 17615686232938517097
12236239 1 18409167709853411214
12815109 37 18202845452734638931
13167823 11 18334293154140511587
13533116 47 18187080616640729170
14123238 8 18408042913742640173
1420 363 17132120142811151190
14251718 22 18411982489896291921
14251732 16 18338516464143908529
14251764 18 18202568376548173137
14251764 75 15766082645193778544
14252887 29 16200159776446033948
14573314 32 13623521329603256307
15788980 27 17821729420763287349
17834072 33 18408603681836870265
17834072 8 14129060309339737930
17834076 25 13830130589769749653
17844677 252 17967255273620601645
18785283 64 17344894429147392704
200 152 18040714757704977253
20645477 70 17894629210954940434
220451 1 18260838089445107511
22485316 2 18408323276586539239
22646028 1 18335138687251008895
23402539 116 17967810535782698189
23536379 177 18186519882642362913
23557571 272 17489041348278295084
23559900 14 18114181994453807808
239999 70 18272377443126591190
300161 21 18409725158196384477
33824 294 17531243933905944546
4214541 1 18336264561704903213
42788 4 18410293609818328061
4990 188 14129061395945299962
5104073 3 18411703201089668657
5374978 207 18272086085234563560
542803 24 18273217490909677805
573450 72 18410571747953557577
57483677 66 18260265239581597483
633830 44 11239993438889212868
67856867 119 18336548342731217205
69090 78 17603586339666897866
7495541 125 18342174513565152833
9971528 1 16805325496185527140

> <PUBCHEM_SHAPE_MULTIPOLES>
311.66
14.16
1.21
0.88
7.4
0.21
0.03
1.33
0.88
-0.17
0.06
-0.32
-0.05
-0.84

> <PUBCHEM_SHAPE_SELFOVERLAP>
646.455

> <PUBCHEM_SHAPE_VOLUME>
178.2

> <PUBCHEM_COORDINATE_TYPE>
2
5
10

$$$$
