95392
  -OEChem-11232109153D

 29 29  0     1  0  0  0  0  0999 V2000
   -0.9623    0.6708   -0.9086 O   0  0  0  0  0  0  0  0  0  0  0  0
   -1.8538   -0.5138    0.9141 O   0  0  0  0  0  0  0  0  0  0  0  0
    1.7407   -0.4009   -0.4685 O   0  0  0  0  0  0  0  0  0  0  0  0
    1.0895   -1.4670    1.4713 O   0  0  0  0  0  0  0  0  0  0  0  0
   -1.4201   -0.6128   -0.4526 C   0  0  2  0  0  0  0  0  0  0  0  0
   -1.4023    1.5893    0.0957 C   0  0  1  0  0  0  0  0  0  0  0  0
   -1.3726    0.7569    1.3544 C   0  0  0  0  0  0  0  0  0  0  0  0
   -0.2642   -1.6010   -0.5437 C   0  0  0  0  0  0  0  0  0  0  0  0
   -2.5998   -1.0600   -1.3066 C   0  0  0  0  0  0  0  0  0  0  0  0
   -0.4983    2.8026    0.1398 C   0  0  0  0  0  0  0  0  0  0  0  0
    0.9124   -1.1713    0.2976 C   0  0  0  0  0  0  0  0  0  0  0  0
    2.9123    0.0888    0.1918 C   0  0  0  0  0  0  0  0  0  0  0  0
    3.7185    0.9183   -0.7847 C   0  0  0  0  0  0  0  0  0  0  0  0
   -2.4288    1.8856   -0.1516 H   0  0  0  0  0  0  0  0  0  0  0  0
   -0.3674    0.6456    1.7696 H   0  0  0  0  0  0  0  0  0  0  0  0
   -2.0262    1.1534    2.1366 H   0  0  0  0  0  0  0  0  0  0  0  0
    0.0753   -1.7254   -1.5794 H   0  0  0  0  0  0  0  0  0  0  0  0
   -0.5653   -2.5930   -0.1853 H   0  0  0  0  0  0  0  0  0  0  0  0
   -3.4254   -0.3435   -1.2273 H   0  0  0  0  0  0  0  0  0  0  0  0
   -2.3245   -1.1201   -2.3647 H   0  0  0  0  0  0  0  0  0  0  0  0
   -2.9833   -2.0315   -0.9777 H   0  0  0  0  0  0  0  0  0  0  0  0
   -0.5208    3.3283   -0.8206 H   0  0  0  0  0  0  0  0  0  0  0  0
   -0.8047    3.4968    0.9278 H   0  0  0  0  0  0  0  0  0  0  0  0
    0.5439    2.5121    0.3115 H   0  0  0  0  0  0  0  0  0  0  0  0
    2.6170    0.7069    1.0471 H   0  0  0  0  0  0  0  0  0  0  0  0
    3.5134   -0.7568    0.5441 H   0  0  0  0  0  0  0  0  0  0  0  0
    4.6232    1.3099   -0.3116 H   0  0  0  0  0  0  0  0  0  0  0  0
    4.0050    0.3188   -1.6549 H   0  0  0  0  0  0  0  0  0  0  0  0
    3.1233    1.7578   -1.1591 H   0  0  0  0  0  0  0  0  0  0  0  0
  1  5  1  0  0  0  0
  1  6  1  0  0  0  0
  2  5  1  0  0  0  0
  2  7  1  0  0  0  0
  3 11  1  0  0  0  0
  3 12  1  0  0  0  0
  4 11  2  0  0  0  0
  5  8  1  0  0  0  0
  5  9  1  0  0  0  0
  6  7  1  0  0  0  0
  6 10  1  0  0  0  0
  6 14  1  0  0  0  0
  7 15  1  0  0  0  0
  7 16  1  0  0  0  0
  8 11  1  0  0  0  0
  8 17  1  0  0  0  0
  8 18  1  0  0  0  0
  9 19  1  0  0  0  0
  9 20  1  0  0  0  0
  9 21  1  0  0  0  0
 10 22  1  0  0  0  0
 10 23  1  0  0  0  0
 10 24  1  0  0  0  0
 12 13  1  0  0  0  0
 12 25  1  0  0  0  0
 12 26  1  0  0  0  0
 13 27  1  0  0  0  0
 13 28  1  0  0  0  0
 13 29  1  0  0  0  0
M  END
> <PUBCHEM_COMPOUND_CID>
95392

> <PUBCHEM_CONFORMER_RMSD>
0.6

> <PUBCHEM_CONFORMER_DIVERSEORDER>
22
70
20
75
99
112
41
80
6
49
42
149
119
89
114
134
91
107
31
127
27
67
74
48
43
78
142
69
113
126
33
11
4
105
64
117
135
50
143
116
120
147
16
82
133
71
83
132
17
106
3
1
102
73
128
51
95
5
35
97
39
103
141
32
65
29
137
45
86
81
61
130
138
68
44
46
129
123
13
25
85
148
79
122
121
146
18
34
60
87
62
136
104
90
76
100
145
124
21
26
110
2
94
56
28
109
101
140
7
54
72
111
57
144
98
84
38
47
30
9
88
52
63
40
19
115
96
37
8
139
92
58
36
59
118
93
23
77
125
55
108
66
15
24
10
14
53
131
12

> <PUBCHEM_MMFF94_PARTIAL_CHARGES>
10
1 -0.56
11 0.66
12 0.28
2 -0.56
3 -0.43
4 -0.57
5 0.56
6 0.28
7 0.28
8 0.06

> <PUBCHEM_EFFECTIVE_ROTOR_COUNT>
5

> <PUBCHEM_PHARMACOPHORE_FEATURES>
4
1 1 acceptor
1 2 acceptor
1 4 acceptor
5 1 2 5 6 7 rings

> <PUBCHEM_HEAVY_ATOM_COUNT>
13

> <PUBCHEM_ATOM_DEF_STEREO_COUNT>
0

> <PUBCHEM_ATOM_UDEF_STEREO_COUNT>
2

> <PUBCHEM_BOND_DEF_STEREO_COUNT>
0

> <PUBCHEM_BOND_UDEF_STEREO_COUNT>
0

> <PUBCHEM_ISOTOPIC_ATOM_COUNT>
0

> <PUBCHEM_COMPONENT_COUNT>
1

> <PUBCHEM_CACTVS_TAUTO_COUNT>
1

> <PUBCHEM_CONFORMER_ID>
000174A000000016

> <PUBCHEM_MMFF94_ENERGY>
21.6227

> <PUBCHEM_FEATURE_SELFOVERLAP>
20.338

> <PUBCHEM_SHAPE_FINGERPRINT>
100427 49 18269548519423737673
13024252 1 17894916251771078775
13380536 55 18193271893032351782
14120999 15 18270104846648241453
14251711 518 18264773164473195552
15279308 10 18119521046982572618
15775835 57 18340214003102976328
16945 1 18340482390934469382
17775402 16 18264187240544386525
20653085 51 18269574762043174774
21524375 3 17834115238629923161
21922407 69 18190451675729965355
22802520 49 16845017805908349270
228727 97 18410004468282932510
23236772 104 18408045112728939897
23402539 116 18130495440138341710
23419403 2 17103984963343953699
241688 4 18270112555845681480
2748010 2 16467267112477981582
369184 2 16153706513799751203
430814 3 17414735171340680649
5084963 1 17196844883634905927

> <PUBCHEM_SHAPE_MULTIPOLES>
244.06
4.15
2.23
1.23
4.28
1.41
0.22
0.17
-1.17
-0.67
0
-0.28
-0.22
-0.74

> <PUBCHEM_SHAPE_SELFOVERLAP>
481.571

> <PUBCHEM_SHAPE_VOLUME>
147.7

> <PUBCHEM_COORDINATE_TYPE>
2
5
10

$$$$
