95414
  -OEChem-11232108413D

 25 25  0     0  0  0  0  0  0999 V2000
    4.0845   -0.0341   -0.0957 O   0  0  0  0  0  0  0  0  0  0  0  0
   -4.3104   -0.9196    0.2337 O   0  0  0  0  0  0  0  0  0  0  0  0
   -0.0445   -0.4252    0.0692 C   0  0  0  0  0  0  0  0  0  0  0  0
    0.5423    0.8345    0.1911 C   0  0  0  0  0  0  0  0  0  0  0  0
    0.7565   -1.5534   -0.1081 C   0  0  0  0  0  0  0  0  0  0  0  0
    2.7307   -0.1622   -0.0419 C   0  0  0  0  0  0  0  0  0  0  0  0
    1.9298    0.9660    0.1354 C   0  0  0  0  0  0  0  0  0  0  0  0
    2.1440   -1.4218   -0.1636 C   0  0  0  0  0  0  0  0  0  0  0  0
   -1.4910   -0.5623    0.1282 C   0  0  0  0  0  0  0  0  0  0  0  0
   -2.3753    0.4368   -0.0862 C   0  0  0  0  0  0  0  0  0  0  0  0
   -3.8435    0.1901   -0.0125 C   0  0  0  0  0  0  0  0  0  0  0  0
   -4.7409    1.3685   -0.2857 C   0  0  0  0  0  0  0  0  0  0  0  0
    4.6180    1.2827    0.0362 C   0  0  0  0  0  0  0  0  0  0  0  0
   -0.0399    1.7374    0.3512 H   0  0  0  0  0  0  0  0  0  0  0  0
    0.3174   -2.5433   -0.2062 H   0  0  0  0  0  0  0  0  0  0  0  0
    2.3201    1.9725    0.2414 H   0  0  0  0  0  0  0  0  0  0  0  0
    2.7629   -2.3041   -0.3021 H   0  0  0  0  0  0  0  0  0  0  0  0
   -1.8578   -1.5610    0.3546 H   0  0  0  0  0  0  0  0  0  0  0  0
   -2.0736    1.4456   -0.3423 H   0  0  0  0  0  0  0  0  0  0  0  0
   -5.0529    1.3513   -1.3329 H   0  0  0  0  0  0  0  0  0  0  0  0
   -5.6188    1.3097    0.3642 H   0  0  0  0  0  0  0  0  0  0  0  0
   -4.2304    2.3112   -0.0712 H   0  0  0  0  0  0  0  0  0  0  0  0
    4.3905    1.7125    1.0177 H   0  0  0  0  0  0  0  0  0  0  0  0
    4.2967    1.9314   -0.7857 H   0  0  0  0  0  0  0  0  0  0  0  0
    5.7076    1.1981   -0.0307 H   0  0  0  0  0  0  0  0  0  0  0  0
  1  6  1  0  0  0  0
  1 13  1  0  0  0  0
  2 11  2  0  0  0  0
  3  4  2  0  0  0  0
  3  5  1  0  0  0  0
  3  9  1  0  0  0  0
  4  7  1  0  0  0  0
  4 14  1  0  0  0  0
  5  8  2  0  0  0  0
  5 15  1  0  0  0  0
  6  7  2  0  0  0  0
  6  8  1  0  0  0  0
  7 16  1  0  0  0  0
  8 17  1  0  0  0  0
  9 10  2  3  0  0  0
  9 18  1  0  0  0  0
 10 11  1  0  0  0  0
 10 19  1  0  0  0  0
 11 12  1  0  0  0  0
 12 20  1  0  0  0  0
 12 21  1  0  0  0  0
 12 22  1  0  0  0  0
 13 23  1  0  0  0  0
 13 24  1  0  0  0  0
 13 25  1  0  0  0  0
M  END
> <PUBCHEM_COMPOUND_CID>
95414

> <PUBCHEM_CONFORMER_RMSD>
0.6

> <PUBCHEM_CONFORMER_DIVERSEORDER>
1
6
3
5
2
4

> <PUBCHEM_MMFF94_PARTIAL_CHARGES>
19
1 -0.36
10 -0.14
11 0.49
12 0.06
13 0.28
14 0.15
15 0.15
16 0.15
17 0.15
18 0.15
19 0.15
2 -0.57
3 0.03
4 -0.15
5 -0.15
6 0.08
7 -0.15
8 -0.15
9 -0.18

> <PUBCHEM_EFFECTIVE_ROTOR_COUNT>
3

> <PUBCHEM_PHARMACOPHORE_FEATURES>
3
1 1 acceptor
1 2 acceptor
6 3 4 5 6 7 8 rings

> <PUBCHEM_HEAVY_ATOM_COUNT>
13

> <PUBCHEM_ATOM_DEF_STEREO_COUNT>
0

> <PUBCHEM_ATOM_UDEF_STEREO_COUNT>
0

> <PUBCHEM_BOND_DEF_STEREO_COUNT>
0

> <PUBCHEM_BOND_UDEF_STEREO_COUNT>
1

> <PUBCHEM_ISOTOPIC_ATOM_COUNT>
0

> <PUBCHEM_COMPONENT_COUNT>
1

> <PUBCHEM_CACTVS_TAUTO_COUNT>
2

> <PUBCHEM_CONFORMER_ID>
000174B600000001

> <PUBCHEM_MMFF94_ENERGY>
41.3474

> <PUBCHEM_FEATURE_SELFOVERLAP>
15.223

> <PUBCHEM_SHAPE_FINGERPRINT>
10608611 8 18408882932484894637
11062470 55 18410856551055136234
11401426 45 18201715167639826360
11471102 20 18341328911882287004
12670543 26 18271257027913597412
13380535 76 18409732880352904050
14123238 8 18261392273359617765
14325111 11 18410573977078539707
14415576 193 18409452479022747213
14911166 2 18272378589861266180
14993402 34 16773795900441557852
15196674 1 18410856546760168935
17834072 33 18059849597581735893
18186145 218 18115027394626229079
200 152 18060133241828102117
20279233 1 18040724658026672427
20645477 70 18199466576167250759
22485316 2 18334011670895470283
23402539 116 17749382680910632495
23402655 69 18272647918412117797
23557571 272 17241046483447540974
23559900 14 18339360747741546546
2916195 48 18200023070842757528
293599 30 18340207487911946780
3071541 37 18408891707266727790
3545911 37 18410857642710240801
366044 4 18411699919935256730
4047638 21 18259706692312285976
4072396 5 18338783538707186250
42788 4 18409729568832469704
449060 50 18409732867583520549
449060 62 18413389826283375586
4990 188 17917720101730584566
5104073 3 18336266760638235475
77779 3 18410857638146131271
81539 233 18412827962793585486

> <PUBCHEM_SHAPE_MULTIPOLES>
255.8
9.32
1.48
0.62
4.44
0.12
0
-3.36
-0.36
-0.36
-0.04
0.03
-0.01
0.3

> <PUBCHEM_SHAPE_SELFOVERLAP>
524.436

> <PUBCHEM_SHAPE_VOLUME>
148.6

> <PUBCHEM_COORDINATE_TYPE>
2
5
10

$$$$
