95425
  -OEChem-11232108563D

 35 34  0     1  0  0  0  0  0999 V2000
    1.7187    0.0158   -0.4110 O   0  0  0  0  0  0  0  0  0  0  0  0
    3.0905   -1.0709    1.0927 O   0  0  0  0  0  0  0  0  0  0  0  0
   -0.7075    0.1050   -0.3632 C   0  0  1  0  0  0  0  0  0  0  0  0
   -1.9368   -0.5532    0.2983 C   0  0  0  0  0  0  0  0  0  0  0  0
   -0.7638    1.6486   -0.4066 C   0  0  0  0  0  0  0  0  0  0  0  0
   -3.2606   -0.2168   -0.3960 C   0  0  0  0  0  0  0  0  0  0  0  0
    0.5728   -0.4152    0.3106 C   0  0  0  0  0  0  0  0  0  0  0  0
   -4.4751   -0.8608    0.2781 C   0  0  0  0  0  0  0  0  0  0  0  0
   -0.8187    2.3326    0.9525 C   0  0  0  0  0  0  0  0  0  0  0  0
   -5.7952   -0.5099   -0.3909 C   0  0  0  0  0  0  0  0  0  0  0  0
    2.9287   -0.3856    0.0923 C   0  0  0  0  0  0  0  0  0  0  0  0
    4.0359    0.1513   -0.7842 C   0  0  0  0  0  0  0  0  0  0  0  0
    5.4110   -0.2409   -0.2727 C   0  0  0  0  0  0  0  0  0  0  0  0
   -0.6756   -0.2248   -1.4113 H   0  0  0  0  0  0  0  0  0  0  0  0
   -1.9930   -0.2676    1.3556 H   0  0  0  0  0  0  0  0  0  0  0  0
   -1.8095   -1.6435    0.2823 H   0  0  0  0  0  0  0  0  0  0  0  0
    0.1183    2.0222   -0.9418 H   0  0  0  0  0  0  0  0  0  0  0  0
   -1.6229    1.9740   -1.0035 H   0  0  0  0  0  0  0  0  0  0  0  0
   -3.2134   -0.5374   -1.4437 H   0  0  0  0  0  0  0  0  0  0  0  0
   -3.4162    0.8673   -0.3993 H   0  0  0  0  0  0  0  0  0  0  0  0
    0.6357   -0.0756    1.3506 H   0  0  0  0  0  0  0  0  0  0  0  0
    0.5608   -1.5125    0.3122 H   0  0  0  0  0  0  0  0  0  0  0  0
   -4.3554   -1.9507    0.2766 H   0  0  0  0  0  0  0  0  0  0  0  0
   -4.5172   -0.5469    1.3280 H   0  0  0  0  0  0  0  0  0  0  0  0
    0.0676    2.1121    1.5536 H   0  0  0  0  0  0  0  0  0  0  0  0
   -0.8611    3.4187    0.8183 H   0  0  0  0  0  0  0  0  0  0  0  0
   -1.7072    2.0365    1.5170 H   0  0  0  0  0  0  0  0  0  0  0  0
   -6.6262   -0.9968    0.1286 H   0  0  0  0  0  0  0  0  0  0  0  0
   -5.9672    0.5709   -0.3720 H   0  0  0  0  0  0  0  0  0  0  0  0
   -5.8036   -0.8409   -1.4341 H   0  0  0  0  0  0  0  0  0  0  0  0
    3.8983   -0.2436   -1.7962 H   0  0  0  0  0  0  0  0  0  0  0  0
    3.9573    1.2433   -0.8111 H   0  0  0  0  0  0  0  0  0  0  0  0
    5.5224   -1.3298   -0.2395 H   0  0  0  0  0  0  0  0  0  0  0  0
    6.1904    0.1630   -0.9262 H   0  0  0  0  0  0  0  0  0  0  0  0
    5.5787    0.1437    0.7389 H   0  0  0  0  0  0  0  0  0  0  0  0
  1  7  1  0  0  0  0
  1 11  1  0  0  0  0
  2 11  2  0  0  0  0
  3  4  1  0  0  0  0
  3  5  1  0  0  0  0
  3  7  1  0  0  0  0
  3 14  1  0  0  0  0
  4  6  1  0  0  0  0
  4 15  1  0  0  0  0
  4 16  1  0  0  0  0
  5  9  1  0  0  0  0
  5 17  1  0  0  0  0
  5 18  1  0  0  0  0
  6  8  1  0  0  0  0
  6 19  1  0  0  0  0
  6 20  1  0  0  0  0
  7 21  1  0  0  0  0
  7 22  1  0  0  0  0
  8 10  1  0  0  0  0
  8 23  1  0  0  0  0
  8 24  1  0  0  0  0
  9 25  1  0  0  0  0
  9 26  1  0  0  0  0
  9 27  1  0  0  0  0
 10 28  1  0  0  0  0
 10 29  1  0  0  0  0
 10 30  1  0  0  0  0
 11 12  1  0  0  0  0
 12 13  1  0  0  0  0
 12 31  1  0  0  0  0
 12 32  1  0  0  0  0
 13 33  1  0  0  0  0
 13 34  1  0  0  0  0
 13 35  1  0  0  0  0
M  END
> <PUBCHEM_COMPOUND_CID>
95425

> <PUBCHEM_CONFORMER_RMSD>
0.8

> <PUBCHEM_CONFORMER_DIVERSEORDER>
1
62
309
44
248
280
220
89
119
211
137
7
168
267
257
19
316
213
304
3
129
259
305
130
276
287
116
290
269
30
53
293
299
325
307
326
125
45
39
283
157
107
295
100
265
80
300
246
142
180
207
277
117
303
315
221
275
314
236
138
296
64
2
103
78
153
200
310
128
214
302
323
57
185
55
49
148
85
16
244
261
95
84
150
159
321
313
247
183
76
306
233
126
158
312
161
294
115
266
146
256
21
94
234
166
90
118
286
181
177
271
301
270
4
208
113
96
289
308
292
27
251
199
219
253
67
63
9
227
141
215
232
12
260
121
201
111
162
132
249
15
88
164
298
36
156
93
28
189
327
202
262
58
48
38
65
68
134
114
10
51
124
22
254
41
192
105
218
171
167
324
31
178
228
172
226
203
318
77
74
40
60
169
14
86
145
147
209
322
20
224
61
184
101
152
198
268
190
104
6
285
18
98
317
191
87
69
122
102
239
187
127
170
133
225
243
223
154
140
240
54
73
120
25
319
252
46
258
35
149
281
194
272
175
11
160
32
99
255
176
216
155
97
81
143
320
82
284
91
5
109
23
273
282
222
72
29
56
110
188
17
230
311
112
136
13
242
106
182
263
291
288
212
33
66
197
70
250
59
193
229
163
8
47
231
278
75
151
204
195
108
174
196
238
42
235
210
34
24
297
123
135
131
274
26
92
264
37
50
245
217
173
144
71
165
139
79
279
52
83
206
43
241
179
205
186
237

> <PUBCHEM_MMFF94_PARTIAL_CHARGES>
5
1 -0.43
11 0.66
12 0.06
2 -0.57
7 0.28

> <PUBCHEM_EFFECTIVE_ROTOR_COUNT>
8

> <PUBCHEM_PHARMACOPHORE_FEATURES>
5
1 10 hydrophobe
1 13 hydrophobe
1 2 acceptor
1 9 hydrophobe
5 3 4 5 6 8 hydrophobe

> <PUBCHEM_HEAVY_ATOM_COUNT>
13

> <PUBCHEM_ATOM_DEF_STEREO_COUNT>
0

> <PUBCHEM_ATOM_UDEF_STEREO_COUNT>
1

> <PUBCHEM_BOND_DEF_STEREO_COUNT>
0

> <PUBCHEM_BOND_UDEF_STEREO_COUNT>
0

> <PUBCHEM_ISOTOPIC_ATOM_COUNT>
0

> <PUBCHEM_COMPONENT_COUNT>
1

> <PUBCHEM_CACTVS_TAUTO_COUNT>
1

> <PUBCHEM_CONFORMER_ID>
000174C100000001

> <PUBCHEM_MMFF94_ENERGY>
7.1859

> <PUBCHEM_FEATURE_SELFOVERLAP>
25.376

> <PUBCHEM_SHAPE_FINGERPRINT>
10922049 32 9223235152400750745
11287383 113 15430324663096987103
114248 4 16008748026434027519
12119455 92 10159702382758092785
12500047 106 11242261774722581096
12815109 37 18408040723467659207
12932764 1 16773218597277100110
13533116 47 17822282458470513706
14123238 8 16298384673536142471
15048467 5 17167859760283475471
15242433 33 17967813859818710499
15342168 16 15696850727045327344
15501527 24 18113905991502555886
17834072 8 18409442588588628037
17834076 25 17385442128571940606
18186145 218 12179846151690630767
18222031 100 18060129968783525783
187816 3 18113057142608415867
200 152 18187364324572886006
20279233 1 13768214865696691320
20645477 70 16515674495398161306
20724930 69 11025796509430193569
20871999 31 17968087595749553317
22485316 2 18040995167904526811
2297311 6 18131080311704918948
23402539 116 18343580741934992303
23557571 272 18060427876009984756
3250762 1 17269213656764651007
366044 4 8214145148879396525
42788 4 17385442133199269295
4463277 17 18411983568044099821
5374978 207 18410003347713037520
68521 5 18411983525226607461
69090 78 8430314619262119840

> <PUBCHEM_SHAPE_MULTIPOLES>
255.8
11.3
1.47
0.88
0.93
1.26
-0.08
-4.45
1.56
0.59
-0.38
-0.24
0.07
-0.31

> <PUBCHEM_SHAPE_SELFOVERLAP>
466.592

> <PUBCHEM_SHAPE_VOLUME>
163.3

> <PUBCHEM_COORDINATE_TYPE>
2
5
10

$$$$
