95466
  -OEChem-11232109133D

 31 30  0     1  0  0  0  0  0999 V2000
    1.9860   -0.2624    0.3833 O   0  0  0  0  0  0  0  0  0  0  0  0
   -1.2959    1.9920   -1.1640 O   0  0  0  0  0  0  0  0  0  0  0  0
    1.2933    0.9910   -1.4191 O   0  0  0  0  0  0  0  0  0  0  0  0
   -0.8275   -0.3517    1.0522 C   0  0  0  0  0  0  0  0  0  0  0  0
   -0.0560    0.9045    0.6129 C   0  0  2  0  0  0  0  0  0  0  0  0
   -1.5489   -1.0714   -0.0947 C   0  0  0  0  0  0  0  0  0  0  0  0
   -2.2436   -2.3406    0.4014 C   0  0  0  0  0  0  0  0  0  0  0  0
   -1.0172    1.9419    0.0338 C   0  0  0  0  0  0  0  0  0  0  0  0
    1.1260    0.5640   -0.2843 C   0  0  0  0  0  0  0  0  0  0  0  0
   -2.9304   -3.0800   -0.7358 C   0  0  0  0  0  0  0  0  0  0  0  0
   -1.6574    2.8971    1.0103 C   0  0  0  0  0  0  0  0  0  0  0  0
    3.1662   -0.6376   -0.3341 C   0  0  0  0  0  0  0  0  0  0  0  0
    4.0054   -1.5468    0.5381 C   0  0  0  0  0  0  0  0  0  0  0  0
   -1.5704   -0.0694    1.8093 H   0  0  0  0  0  0  0  0  0  0  0  0
   -0.1418   -1.0543    1.5417 H   0  0  0  0  0  0  0  0  0  0  0  0
    0.3910    1.3728    1.5011 H   0  0  0  0  0  0  0  0  0  0  0  0
   -2.2974   -0.4108   -0.5462 H   0  0  0  0  0  0  0  0  0  0  0  0
   -0.8303   -1.3347   -0.8797 H   0  0  0  0  0  0  0  0  0  0  0  0
   -1.5111   -3.0076    0.8705 H   0  0  0  0  0  0  0  0  0  0  0  0
   -2.9860   -2.0840    1.1660 H   0  0  0  0  0  0  0  0  0  0  0  0
   -3.4209   -3.9830   -0.3591 H   0  0  0  0  0  0  0  0  0  0  0  0
   -3.6919   -2.4518   -1.2089 H   0  0  0  0  0  0  0  0  0  0  0  0
   -2.2080   -3.3802   -1.5015 H   0  0  0  0  0  0  0  0  0  0  0  0
   -0.8819    3.4670    1.5279 H   0  0  0  0  0  0  0  0  0  0  0  0
   -2.3037    3.5957    0.4715 H   0  0  0  0  0  0  0  0  0  0  0  0
   -2.2619    2.3405    1.7300 H   0  0  0  0  0  0  0  0  0  0  0  0
    2.8830   -1.1639   -1.2524 H   0  0  0  0  0  0  0  0  0  0  0  0
    3.7385    0.2607   -0.5910 H   0  0  0  0  0  0  0  0  0  0  0  0
    4.9176   -1.8541    0.0192 H   0  0  0  0  0  0  0  0  0  0  0  0
    4.2813   -1.0405    1.4690 H   0  0  0  0  0  0  0  0  0  0  0  0
    3.4394   -2.4413    0.8187 H   0  0  0  0  0  0  0  0  0  0  0  0
  1  9  1  0  0  0  0
  1 12  1  0  0  0  0
  2  8  2  0  0  0  0
  3  9  2  0  0  0  0
  4  5  1  0  0  0  0
  4  6  1  0  0  0  0
  4 14  1  0  0  0  0
  4 15  1  0  0  0  0
  5  8  1  0  0  0  0
  5  9  1  0  0  0  0
  5 16  1  0  0  0  0
  6  7  1  0  0  0  0
  6 17  1  0  0  0  0
  6 18  1  0  0  0  0
  7 10  1  0  0  0  0
  7 19  1  0  0  0  0
  7 20  1  0  0  0  0
  8 11  1  0  0  0  0
 10 21  1  0  0  0  0
 10 22  1  0  0  0  0
 10 23  1  0  0  0  0
 11 24  1  0  0  0  0
 11 25  1  0  0  0  0
 11 26  1  0  0  0  0
 12 13  1  0  0  0  0
 12 27  1  0  0  0  0
 12 28  1  0  0  0  0
 13 29  1  0  0  0  0
 13 30  1  0  0  0  0
 13 31  1  0  0  0  0
M  END
> <PUBCHEM_COMPOUND_CID>
95466

> <PUBCHEM_CONFORMER_RMSD>
0.8

> <PUBCHEM_CONFORMER_DIVERSEORDER>
1
167
250
48
59
258
237
128
230
55
236
10
129
9
64
196
185
248
240
120
102
16
122
201
155
211
110
198
217
95
229
169
154
15
256
165
254
106
200
2
147
109
13
83
157
26
203
206
195
187
135
107
208
35
164
151
115
11
234
44
116
5
249
17
34
74
255
80
210
12
226
81
72
133
194
144
209
261
265
136
97
174
3
188
29
160
127
92
79
139
123
4
98
93
6
89
199
257
114
152
242
99
168
96
124
264
179
205
239
113
219
52
158
36
100
233
238
19
142
88
130
266
25
170
60
56
20
85
57
176
61
148
32
216
82
62
212
171
263
177
163
46
94
77
173
192
112
14
223
213
149
91
22
103
8
140
51
235
43
204
27
126
189
224
243
253
38
191
175
31
65
68
87
69
252
28
221
262
166
227
220
180
143
66
70
141
86
178
75
215
197
42
241
138
54
23
214
186
259
118
181
40
132
24
222
39
131
63
228
41
108
111
137
183
90
50
190
30
207
49
225
244
159
105
146
101
145
78
162
67
18
7
71
260
245
247
251
153
45
232
150
119
104
47
84
121
202
161
156
218
231
37
125
184
172
182
117
21
73
193
134
246
53
58
33
76

> <PUBCHEM_MMFF94_PARTIAL_CHARGES>
8
1 -0.43
11 0.06
12 0.28
2 -0.57
3 -0.57
5 0.12
8 0.45
9 0.66

> <PUBCHEM_EFFECTIVE_ROTOR_COUNT>
7

> <PUBCHEM_PHARMACOPHORE_FEATURES>
5
1 10 hydrophobe
1 2 acceptor
1 3 acceptor
1 5 anion
4 4 5 6 7 hydrophobe

> <PUBCHEM_HEAVY_ATOM_COUNT>
13

> <PUBCHEM_ATOM_DEF_STEREO_COUNT>
0

> <PUBCHEM_ATOM_UDEF_STEREO_COUNT>
1

> <PUBCHEM_BOND_DEF_STEREO_COUNT>
0

> <PUBCHEM_BOND_UDEF_STEREO_COUNT>
0

> <PUBCHEM_ISOTOPIC_ATOM_COUNT>
0

> <PUBCHEM_COMPONENT_COUNT>
1

> <PUBCHEM_CACTVS_TAUTO_COUNT>
5

> <PUBCHEM_CONFORMER_ID>
000174EA00000001

> <PUBCHEM_MMFF94_ENERGY>
8.4358

> <PUBCHEM_FEATURE_SELFOVERLAP>
25.376

> <PUBCHEM_SHAPE_FINGERPRINT>
1 1 17401777323923375225
11322862 65 18051710849030257343
12500047 106 18124310507128149178
12725867 57 17906159999568963889
13083527 12 18121764278679413368
13931106 250 18340190913063634278
14577589 140 17898862240426889704
14817 1 9568713753099334297
18410436 195 18125720338416367593
19021347 4 17980768142692364505
20524608 308 18268150846950381938
20645477 70 17473249351133016807
20711985 344 18124630610497427159
20871998 184 18264505995736882576
21339142 149 17986938661966430008
22112679 90 18053976053436496627
23402539 116 18199455572466254517
23419403 2 17108131139924595264
257057 1 18268144438753733099
305870 269 17332531168064457528
3086196 2 18411688886169554858
3250762 1 18271511096018943632
6338986 31 18339079426993067026
7364860 26 17476639149517064747
81228 2 18407477764781723003

> <PUBCHEM_SHAPE_MULTIPOLES>
249.93
4.96
3.55
1.1
4.83
0.15
-0.14
-4.94
0.09
-3.89
0.03
-0.09
0.3
-0.81

> <PUBCHEM_SHAPE_SELFOVERLAP>
467.124

> <PUBCHEM_SHAPE_VOLUME>
156.3

> <PUBCHEM_COORDINATE_TYPE>
2
5
10

$$$$
