95485
  -OEChem-11232108483D

 26 26  0     1  0  0  0  0  0999 V2000
   -0.4559   -0.4395   -0.5811 O   0  0  0  0  0  0  0  0  0  0  0  0
   -2.6916   -0.3842    0.1615 O   0  0  0  0  0  0  0  0  0  0  0  0
   -1.3380   -0.7230    0.5098 C   0  0  1  0  0  0  0  0  0  0  0  0
   -1.3349   -2.2235    0.7792 C   0  0  0  0  0  0  0  0  0  0  0  0
    0.8419   -0.0980   -0.3151 C   0  0  0  0  0  0  0  0  0  0  0  0
   -2.8454    1.0012   -0.1194 C   0  0  0  0  0  0  0  0  0  0  0  0
    1.1157    1.0302    0.4517 C   0  0  0  0  0  0  0  0  0  0  0  0
    1.8778   -0.8814   -0.8142 C   0  0  0  0  0  0  0  0  0  0  0  0
   -4.2912    1.2747   -0.4754 C   0  0  0  0  0  0  0  0  0  0  0  0
    2.4389    1.3788    0.7221 C   0  0  0  0  0  0  0  0  0  0  0  0
    3.2011   -0.5327   -0.5436 C   0  0  0  0  0  0  0  0  0  0  0  0
    3.4815    0.5973    0.2246 C   0  0  0  0  0  0  0  0  0  0  0  0
   -1.0660   -0.1825    1.4245 H   0  0  0  0  0  0  0  0  0  0  0  0
   -0.3382   -2.5695    1.0697 H   0  0  0  0  0  0  0  0  0  0  0  0
   -1.6252   -2.7775   -0.1208 H   0  0  0  0  0  0  0  0  0  0  0  0
   -2.0484   -2.4810    1.5684 H   0  0  0  0  0  0  0  0  0  0  0  0
   -2.5624    1.5891    0.7607 H   0  0  0  0  0  0  0  0  0  0  0  0
   -2.2085    1.2920   -0.9615 H   0  0  0  0  0  0  0  0  0  0  0  0
    0.3142    1.6560    0.8341 H   0  0  0  0  0  0  0  0  0  0  0  0
    1.6639   -1.7625   -1.4125 H   0  0  0  0  0  0  0  0  0  0  0  0
   -4.4460    2.3346   -0.6957 H   0  0  0  0  0  0  0  0  0  0  0  0
   -4.5918    0.6848   -1.3476 H   0  0  0  0  0  0  0  0  0  0  0  0
   -4.9524    0.9849    0.3479 H   0  0  0  0  0  0  0  0  0  0  0  0
    2.6575    2.2605    1.3174 H   0  0  0  0  0  0  0  0  0  0  0  0
    4.0130   -1.1412   -0.9311 H   0  0  0  0  0  0  0  0  0  0  0  0
    4.5118    0.8692    0.4345 H   0  0  0  0  0  0  0  0  0  0  0  0
  1  3  1  0  0  0  0
  1  5  1  0  0  0  0
  2  3  1  0  0  0  0
  2  6  1  0  0  0  0
  3  4  1  0  0  0  0
  3 13  1  0  0  0  0
  4 14  1  0  0  0  0
  4 15  1  0  0  0  0
  4 16  1  0  0  0  0
  5  7  2  0  0  0  0
  5  8  1  0  0  0  0
  6  9  1  0  0  0  0
  6 17  1  0  0  0  0
  6 18  1  0  0  0  0
  7 10  1  0  0  0  0
  7 19  1  0  0  0  0
  8 11  2  0  0  0  0
  8 20  1  0  0  0  0
  9 21  1  0  0  0  0
  9 22  1  0  0  0  0
  9 23  1  0  0  0  0
 10 12  2  0  0  0  0
 10 24  1  0  0  0  0
 11 12  1  0  0  0  0
 11 25  1  0  0  0  0
 12 26  1  0  0  0  0
M  END
> <PUBCHEM_COMPOUND_CID>
95485

> <PUBCHEM_CONFORMER_RMSD>
0.6

> <PUBCHEM_CONFORMER_DIVERSEORDER>
1
31
37
6
32
21
20
4
28
27
18
29
15
17
23
34
35
36
30
8
9
25
24
33
13
11
3
12
16
2
26
10
22
5
14
19
7

> <PUBCHEM_MMFF94_PARTIAL_CHARGES>
15
1 -0.36
10 -0.15
11 -0.15
12 -0.15
19 0.15
2 -0.56
20 0.15
24 0.15
25 0.15
26 0.15
3 0.56
5 0.08
6 0.28
7 -0.15
8 -0.15

> <PUBCHEM_EFFECTIVE_ROTOR_COUNT>
4

> <PUBCHEM_PHARMACOPHORE_FEATURES>
3
1 1 acceptor
1 2 acceptor
6 5 7 8 10 11 12 rings

> <PUBCHEM_HEAVY_ATOM_COUNT>
12

> <PUBCHEM_ATOM_DEF_STEREO_COUNT>
0

> <PUBCHEM_ATOM_UDEF_STEREO_COUNT>
1

> <PUBCHEM_BOND_DEF_STEREO_COUNT>
0

> <PUBCHEM_BOND_UDEF_STEREO_COUNT>
0

> <PUBCHEM_ISOTOPIC_ATOM_COUNT>
0

> <PUBCHEM_COMPONENT_COUNT>
1

> <PUBCHEM_CACTVS_TAUTO_COUNT>
1

> <PUBCHEM_CONFORMER_ID>
000174FD00000001

> <PUBCHEM_MMFF94_ENERGY>
33.6469

> <PUBCHEM_FEATURE_SELFOVERLAP>
15.262

> <PUBCHEM_SHAPE_FINGERPRINT>
10608611 8 18340767151550716024
11471102 20 18131068212708257908
124424 183 18342459223037112106
12500047 106 18334576862658452202
12932764 1 17987247805227891622
13380535 76 18413105048076141039
13571099 22 17846502508764216942
13922767 16 18201996616883734512
14648413 74 18267303316727584280
14993402 34 16415480458697357060
15219456 202 18342460373740148896
15775835 57 17968093092996156841
16945 1 17203061763191912586
18186145 218 18342462491528342921
200 152 16774076250194878637
20201158 50 18201723924814359780
20279233 1 18341617031373942514
20524608 308 18336266850780268099
20645477 56 18334859454363576633
20645477 70 17846504694876554646
20715346 28 18200322142168292338
22892500 29 17917703608982788688
23402539 116 18411127057228718165
23402655 69 17917706864626027965
25 1 18341051800834987655
2748010 2 18129110081209460174
276578 36 17458907041790534163
305870 269 18041835100330379467
3248919 1 18115020947716690134
69090 78 18272366499417863487
8030462 33 14117530838937594462
81228 2 17899138484271032331

> <PUBCHEM_SHAPE_MULTIPOLES>
235.22
6.65
1.71
0.88
3.39
0.53
0.01
-2.71
-0.73
0.74
0.38
-0.16
0.09
0.99

> <PUBCHEM_SHAPE_SELFOVERLAP>
468.763

> <PUBCHEM_SHAPE_VOLUME>
139.9

> <PUBCHEM_COORDINATE_TYPE>
2
5
10

$$$$
