95539
  -OEChem-11232108573D

 32 31  0     1  0  0  0  0  0999 V2000
   -0.4983    0.3756    0.3232 O   0  0  0  0  0  0  0  0  0  0  0  0
    0.7074    0.9844   -1.5473 O   0  0  0  0  0  0  0  0  0  0  0  0
    1.7967    0.8428    0.6189 C   0  0  1  0  0  0  0  0  0  0  0  0
    2.9207   -0.1174    0.2048 C   0  0  0  0  0  0  0  0  0  0  0  0
    2.4685   -1.5808    0.2020 C   0  0  0  0  0  0  0  0  0  0  0  0
    2.2912    2.2872    0.6512 C   0  0  0  0  0  0  0  0  0  0  0  0
    0.6296    0.7498   -0.3480 C   0  0  0  0  0  0  0  0  0  0  0  0
   -2.8371   -0.1655    0.4182 C   0  0  0  0  0  0  0  0  0  0  0  0
   -1.6794    0.2557   -0.4758 C   0  0  0  0  0  0  0  0  0  0  0  0
   -4.1309   -0.3285   -0.3745 C   0  0  0  0  0  0  0  0  0  0  0  0
    3.6060   -2.5123   -0.1869 C   0  0  0  0  0  0  0  0  0  0  0  0
   -5.2744   -0.7909    0.5142 C   0  0  0  0  0  0  0  0  0  0  0  0
    1.4524    0.5739    1.6255 H   0  0  0  0  0  0  0  0  0  0  0  0
    3.2878    0.1458   -0.7956 H   0  0  0  0  0  0  0  0  0  0  0  0
    3.7664   -0.0017    0.8944 H   0  0  0  0  0  0  0  0  0  0  0  0
    1.6422   -1.7273   -0.5024 H   0  0  0  0  0  0  0  0  0  0  0  0
    2.1007   -1.8572    1.1969 H   0  0  0  0  0  0  0  0  0  0  0  0
    3.1014    2.4048    1.3781 H   0  0  0  0  0  0  0  0  0  0  0  0
    2.6641    2.6059   -0.3285 H   0  0  0  0  0  0  0  0  0  0  0  0
    1.4809    2.9686    0.9328 H   0  0  0  0  0  0  0  0  0  0  0  0
   -2.9702    0.5760    1.2158 H   0  0  0  0  0  0  0  0  0  0  0  0
   -2.5800   -1.1052    0.9231 H   0  0  0  0  0  0  0  0  0  0  0  0
   -1.5121   -0.4966   -1.2556 H   0  0  0  0  0  0  0  0  0  0  0  0
   -1.8983    1.2216   -0.9457 H   0  0  0  0  0  0  0  0  0  0  0  0
   -3.9856   -1.0587   -1.1792 H   0  0  0  0  0  0  0  0  0  0  0  0
   -4.4015    0.6237   -0.8453 H   0  0  0  0  0  0  0  0  0  0  0  0
    3.9752   -2.2825   -1.1914 H   0  0  0  0  0  0  0  0  0  0  0  0
    4.4415   -2.4256    0.5151 H   0  0  0  0  0  0  0  0  0  0  0  0
    3.2636   -3.5519   -0.1802 H   0  0  0  0  0  0  0  0  0  0  0  0
   -5.0483   -1.7587    0.9730 H   0  0  0  0  0  0  0  0  0  0  0  0
   -5.4668   -0.0680    1.3134 H   0  0  0  0  0  0  0  0  0  0  0  0
   -6.1912   -0.8997   -0.0736 H   0  0  0  0  0  0  0  0  0  0  0  0
  1  7  1  0  0  0  0
  1  9  1  0  0  0  0
  2  7  2  0  0  0  0
  3  4  1  0  0  0  0
  3  6  1  0  0  0  0
  3  7  1  0  0  0  0
  3 13  1  0  0  0  0
  4  5  1  0  0  0  0
  4 14  1  0  0  0  0
  4 15  1  0  0  0  0
  5 11  1  0  0  0  0
  5 16  1  0  0  0  0
  5 17  1  0  0  0  0
  6 18  1  0  0  0  0
  6 19  1  0  0  0  0
  6 20  1  0  0  0  0
  8  9  1  0  0  0  0
  8 10  1  0  0  0  0
  8 21  1  0  0  0  0
  8 22  1  0  0  0  0
  9 23  1  0  0  0  0
  9 24  1  0  0  0  0
 10 12  1  0  0  0  0
 10 25  1  0  0  0  0
 10 26  1  0  0  0  0
 11 27  1  0  0  0  0
 11 28  1  0  0  0  0
 11 29  1  0  0  0  0
 12 30  1  0  0  0  0
 12 31  1  0  0  0  0
 12 32  1  0  0  0  0
M  END
> <PUBCHEM_COMPOUND_CID>
95539

> <PUBCHEM_CONFORMER_RMSD>
0.8

> <PUBCHEM_CONFORMER_DIVERSEORDER>
1
172
36
175
96
83
201
17
118
22
91
179
43
19
9
202
34
171
103
63
232
208
54
157
166
178
159
228
144
129
229
14
62
104
186
225
46
140
135
138
31
221
102
158
182
3
97
115
131
199
7
29
210
124
10
92
99
45
75
198
59
227
149
18
188
160
76
60
174
85
8
143
146
193
113
39
72
28
127
209
150
185
200
58
164
177
87
180
132
123
190
214
51
27
89
223
100
66
191
73
2
128
120
16
107
41
231
25
162
69
230
161
137
13
68
116
154
215
106
219
48
218
173
233
151
125
117
33
32
38
142
226
20
194
23
192
217
49
111
84
101
211
126
56
55
86
147
189
206
11
213
114
152
67
95
136
78
148
196
207
197
184
94
35
77
216
119
53
15
155
4
21
93
12
203
112
169
141
30
145
70
222
52
65
98
50
109
183
204
110
61
163
139
134
88
170
47
37
105
168
5
82
187
176
121
130
165
40
74
71
122
220
79
57
64
81
133
205
212
108
181
195
80
90
26
224
24
156
167
153
42
44
6

> <PUBCHEM_MMFF94_PARTIAL_CHARGES>
5
1 -0.43
2 -0.57
3 0.06
7 0.66
9 0.28

> <PUBCHEM_EFFECTIVE_ROTOR_COUNT>
7

> <PUBCHEM_PHARMACOPHORE_FEATURES>
4
1 11 hydrophobe
1 12 hydrophobe
1 2 acceptor
1 6 hydrophobe

> <PUBCHEM_HEAVY_ATOM_COUNT>
12

> <PUBCHEM_ATOM_DEF_STEREO_COUNT>
0

> <PUBCHEM_ATOM_UDEF_STEREO_COUNT>
1

> <PUBCHEM_BOND_DEF_STEREO_COUNT>
0

> <PUBCHEM_BOND_UDEF_STEREO_COUNT>
0

> <PUBCHEM_ISOTOPIC_ATOM_COUNT>
0

> <PUBCHEM_COMPONENT_COUNT>
1

> <PUBCHEM_CACTVS_TAUTO_COUNT>
1

> <PUBCHEM_CONFORMER_ID>
0001753300000001

> <PUBCHEM_MMFF94_ENERGY>
4.0929

> <PUBCHEM_FEATURE_SELFOVERLAP>
20.297

> <PUBCHEM_SHAPE_FINGERPRINT>
10465860 71 16588313747749827071
10912923 1 17560522906514692619
11543360 7 7853571293182365049
122479 349 10734999868960680726
12346645 6 18337668728131796276
12932764 1 18130499825104875821
13533116 47 18341617036133361227
13675066 3 18259982708765436545
14251710 61 18336266747679804411
14251717 144 18410571777649511626
14252887 29 18186801404578903385
14350558 41 18334862727054582263
15477762 27 18409448081282002658
177051 138 18408041814652986011
20645477 70 18408879650929524367
20671657 53 18339083687573848072
20708731 107 18333736827464341860
20871998 22 18339918200289199186
20871999 31 17168712912007060070
22485316 2 18342173423392272799
23557571 272 17240475897327402724
42 15 18412547604845578811
4416823 128 18337671893506908134
581208 293 18337382841959610290
7364860 26 18341048605469237112
94968 8 18334014956535233602

> <PUBCHEM_SHAPE_MULTIPOLES>
235.22
8.72
2.08
0.92
12.06
0.43
-0.2
4.64
1.29
-3.44
0.18
0.01
-0.21
0.46

> <PUBCHEM_SHAPE_SELFOVERLAP>
429.741

> <PUBCHEM_SHAPE_VOLUME>
150.9

> <PUBCHEM_COORDINATE_TYPE>
2
5
10

$$$$
