95595
  -OEChem-11232109243D

 27 27  0     0  0  0  0  0  0999 V2000
   -5.4102    0.8717    0.1498 O   0  0  0  0  0  0  0  0  0  0  0  0
    3.4928   -0.0100    0.0890 C   0  0  0  0  0  0  0  0  0  0  0  0
    2.0119   -0.1754    0.0277 C   0  0  0  0  0  0  0  0  0  0  0  0
    3.9388    0.8678    1.2738 C   0  0  0  0  0  0  0  0  0  0  0  0
    4.0783    0.5464   -1.2227 C   0  0  0  0  0  0  0  0  0  0  0  0
    1.1929    0.9378   -0.1614 C   0  0  0  0  0  0  0  0  0  0  0  0
    1.4457   -1.4433    0.1598 C   0  0  0  0  0  0  0  0  0  0  0  0
   -0.7584   -0.4850   -0.0862 C   0  0  0  0  0  0  0  0  0  0  0  0
   -0.1921    0.7831   -0.2181 C   0  0  0  0  0  0  0  0  0  0  0  0
    0.0607   -1.5982    0.1028 C   0  0  0  0  0  0  0  0  0  0  0  0
   -2.2026   -0.6467   -0.1458 C   0  0  0  0  0  0  0  0  0  0  0  0
   -3.1088    0.3337    0.0574 C   0  0  0  0  0  0  0  0  0  0  0  0
   -4.5490    0.0181   -0.0261 C   0  0  0  0  0  0  0  0  0  0  0  0
    3.9537   -0.9956    0.2416 H   0  0  0  0  0  0  0  0  0  0  0  0
    3.5901    1.9012    1.1720 H   0  0  0  0  0  0  0  0  0  0  0  0
    5.0316    0.8903    1.3446 H   0  0  0  0  0  0  0  0  0  0  0  0
    3.5485    0.4734    2.2186 H   0  0  0  0  0  0  0  0  0  0  0  0
    3.7882   -0.0789   -2.0743 H   0  0  0  0  0  0  0  0  0  0  0  0
    5.1726    0.5652   -1.1768 H   0  0  0  0  0  0  0  0  0  0  0  0
    3.7357    1.5671   -1.4238 H   0  0  0  0  0  0  0  0  0  0  0  0
    1.6130    1.9339   -0.2704 H   0  0  0  0  0  0  0  0  0  0  0  0
    2.0691   -2.3210    0.3081 H   0  0  0  0  0  0  0  0  0  0  0  0
   -0.7897    1.6746   -0.3849 H   0  0  0  0  0  0  0  0  0  0  0  0
   -0.3623   -2.5943    0.2091 H   0  0  0  0  0  0  0  0  0  0  0  0
   -2.5531   -1.6543   -0.3613 H   0  0  0  0  0  0  0  0  0  0  0  0
   -2.8509    1.3573    0.2993 H   0  0  0  0  0  0  0  0  0  0  0  0
   -4.8070   -1.0288   -0.2573 H   0  0  0  0  0  0  0  0  0  0  0  0
  1 13  2  0  0  0  0
  2  3  1  0  0  0  0
  2  4  1  0  0  0  0
  2  5  1  0  0  0  0
  2 14  1  0  0  0  0
  3  6  2  0  0  0  0
  3  7  1  0  0  0  0
  4 15  1  0  0  0  0
  4 16  1  0  0  0  0
  4 17  1  0  0  0  0
  5 18  1  0  0  0  0
  5 19  1  0  0  0  0
  5 20  1  0  0  0  0
  6  9  1  0  0  0  0
  6 21  1  0  0  0  0
  7 10  2  0  0  0  0
  7 22  1  0  0  0  0
  8  9  2  0  0  0  0
  8 10  1  0  0  0  0
  8 11  1  0  0  0  0
  9 23  1  0  0  0  0
 10 24  1  0  0  0  0
 11 12  2  3  0  0  0
 11 25  1  0  0  0  0
 12 13  1  0  0  0  0
 12 26  1  0  0  0  0
 13 27  1  0  0  0  0
M  END
> <PUBCHEM_COMPOUND_CID>
95595

> <PUBCHEM_CONFORMER_RMSD>
0.6

> <PUBCHEM_CONFORMER_DIVERSEORDER>
1
2
3

> <PUBCHEM_MMFF94_PARTIAL_CHARGES>
18
1 -0.57
10 -0.15
11 -0.18
12 -0.14
13 0.5
2 0.14
21 0.15
22 0.15
23 0.15
24 0.15
25 0.15
26 0.15
27 0.06
3 -0.14
6 -0.15
7 -0.15
8 0.03
9 -0.15

> <PUBCHEM_EFFECTIVE_ROTOR_COUNT>
3

> <PUBCHEM_PHARMACOPHORE_FEATURES>
3
1 1 acceptor
3 2 4 5 hydrophobe
6 3 6 7 8 9 10 rings

> <PUBCHEM_HEAVY_ATOM_COUNT>
13

> <PUBCHEM_ATOM_DEF_STEREO_COUNT>
0

> <PUBCHEM_ATOM_UDEF_STEREO_COUNT>
0

> <PUBCHEM_BOND_DEF_STEREO_COUNT>
0

> <PUBCHEM_BOND_UDEF_STEREO_COUNT>
1

> <PUBCHEM_ISOTOPIC_ATOM_COUNT>
0

> <PUBCHEM_COMPONENT_COUNT>
1

> <PUBCHEM_CACTVS_TAUTO_COUNT>
1

> <PUBCHEM_CONFORMER_ID>
0001756B00000001

> <PUBCHEM_MMFF94_ENERGY>
30.6124

> <PUBCHEM_FEATURE_SELFOVERLAP>
15.223

> <PUBCHEM_SHAPE_FINGERPRINT>
10354089 29 18411990144023976753
10980938 120 18336826403229662459
11062470 55 17917991685202374803
11132069 177 18410289237430850898
11401426 45 18343297084945933961
11471102 20 18409165489402908943
11543360 7 15913037772291956084
13760787 19 16878230852353939594
13760787 5 17676761050334995758
13922767 16 18341327876790205857
14123238 8 17967534584292023021
14911166 2 18341621429568056020
14993402 34 17775005687025854695
16945 1 18334569183515194990
17834072 33 17703784838743354455
18186145 218 18201996646790314924
19026448 4 16988563558398285766
19026448 5 16370723776878779906
200 152 7997969060015087855
20645477 70 18271247105901528631
212847 35 18410292510702404208
23402539 116 17703782639319237173
23402655 69 18341325596911456669
23559900 14 18272374213579774380
2748010 2 18046053874827310318
293599 30 18335988648626295564
3071541 37 18335144154929532286
366044 4 18410855477350618794
4047638 21 17917992789151420802
4072396 5 18188756284607843666
42 15 14345789431505002529
449060 62 18408325466904016982
4990 188 17847068778516478710
53812653 166 18341324574118292562
81539 233 18187363199117939839

> <PUBCHEM_SHAPE_MULTIPOLES>
261.66
9.14
1.28
0.87
7.9
0.37
0.01
-3.27
0.32
-0.18
0.07
-0.99
-0.16
0.01

> <PUBCHEM_SHAPE_SELFOVERLAP>
533.511

> <PUBCHEM_SHAPE_VOLUME>
152.8

> <PUBCHEM_COORDINATE_TYPE>
2
5
10

$$$$
