95644
  -OEChem-11232108443D

 24 24  0     1  0  0  0  0  0999 V2000
   -2.2355    1.9080    0.5118 O   0  0  0  0  0  0  0  0  0  0  0  0
   -0.7934   -1.0887   -0.5016 C   0  0  1  0  0  0  0  0  0  0  0  0
   -0.7047    0.4413   -0.6317 C   0  0  2  0  0  0  0  0  0  0  0  0
    0.7476    0.8954   -0.8535 C   0  0  0  0  0  0  0  0  0  0  0  0
    0.1086   -1.6148    0.6275 C   0  0  0  0  0  0  0  0  0  0  0  0
    1.7704    0.1475   -0.0300 C   0  0  0  0  0  0  0  0  0  0  0  0
    1.4649   -0.9741    0.6447 C   0  0  0  0  0  0  0  0  0  0  0  0
   -2.2291   -1.5867   -0.3292 C   0  0  0  0  0  0  0  0  0  0  0  0
   -1.2810    1.1400    0.5697 C   0  0  0  0  0  0  0  0  0  0  0  0
    3.1522    0.7321   -0.0077 C   0  0  0  0  0  0  0  0  0  0  0  0
   -0.4224   -1.5138   -1.4460 H   0  0  0  0  0  0  0  0  0  0  0  0
   -1.2995    0.7638   -1.4967 H   0  0  0  0  0  0  0  0  0  0  0  0
    0.8299    1.9695   -0.6435 H   0  0  0  0  0  0  0  0  0  0  0  0
    1.0040    0.7563   -1.9117 H   0  0  0  0  0  0  0  0  0  0  0  0
    0.2337   -2.6975    0.5031 H   0  0  0  0  0  0  0  0  0  0  0  0
   -0.3600   -1.4647    1.6075 H   0  0  0  0  0  0  0  0  0  0  0  0
    2.2256   -1.4690    1.2426 H   0  0  0  0  0  0  0  0  0  0  0  0
   -2.6653   -1.2525    0.6178 H   0  0  0  0  0  0  0  0  0  0  0  0
   -2.8654   -1.2256   -1.1438 H   0  0  0  0  0  0  0  0  0  0  0  0
   -2.2595   -2.6815   -0.3413 H   0  0  0  0  0  0  0  0  0  0  0  0
   -0.7917    0.9406    1.5380 H   0  0  0  0  0  0  0  0  0  0  0  0
    3.5558    0.7888   -1.0239 H   0  0  0  0  0  0  0  0  0  0  0  0
    3.8449    0.1334    0.5929 H   0  0  0  0  0  0  0  0  0  0  0  0
    3.1309    1.7416    0.4153 H   0  0  0  0  0  0  0  0  0  0  0  0
  1  9  2  0  0  0  0
  2  3  1  0  0  0  0
  2  5  1  0  0  0  0
  2  8  1  0  0  0  0
  2 11  1  0  0  0  0
  3  4  1  0  0  0  0
  3  9  1  0  0  0  0
  3 12  1  0  0  0  0
  4  6  1  0  0  0  0
  4 13  1  0  0  0  0
  4 14  1  0  0  0  0
  5  7  1  0  0  0  0
  5 15  1  0  0  0  0
  5 16  1  0  0  0  0
  6  7  2  0  0  0  0
  6 10  1  0  0  0  0
  7 17  1  0  0  0  0
  8 18  1  0  0  0  0
  8 19  1  0  0  0  0
  8 20  1  0  0  0  0
  9 21  1  0  0  0  0
 10 22  1  0  0  0  0
 10 23  1  0  0  0  0
 10 24  1  0  0  0  0
M  END
> <PUBCHEM_COMPOUND_CID>
95644

> <PUBCHEM_CONFORMER_RMSD>
0.4

> <PUBCHEM_CONFORMER_DIVERSEORDER>
5
8
3
10
4
9
2
6
7
1

> <PUBCHEM_MMFF94_PARTIAL_CHARGES>
10
1 -0.57
10 0.14
17 0.15
21 0.06
3 0.06
4 0.14
5 0.14
6 -0.28
7 -0.29
9 0.45

> <PUBCHEM_EFFECTIVE_ROTOR_COUNT>
1.8

> <PUBCHEM_PHARMACOPHORE_FEATURES>
2
1 1 acceptor
6 2 3 4 5 6 7 rings

> <PUBCHEM_HEAVY_ATOM_COUNT>
10

> <PUBCHEM_ATOM_DEF_STEREO_COUNT>
0

> <PUBCHEM_ATOM_UDEF_STEREO_COUNT>
2

> <PUBCHEM_BOND_DEF_STEREO_COUNT>
0

> <PUBCHEM_BOND_UDEF_STEREO_COUNT>
0

> <PUBCHEM_ISOTOPIC_ATOM_COUNT>
0

> <PUBCHEM_COMPONENT_COUNT>
1

> <PUBCHEM_CACTVS_TAUTO_COUNT>
2

> <PUBCHEM_CONFORMER_ID>
0001759C00000005

> <PUBCHEM_MMFF94_ENERGY>
9.4746

> <PUBCHEM_FEATURE_SELFOVERLAP>
10.148

> <PUBCHEM_SHAPE_FINGERPRINT>
12423570 1 8330642228062359999
13024252 1 12468900036086349582
137420 1 12642983736258375425
15775835 57 18339367357342572944
16945 1 18268148832521133638
18185500 45 18261946448636967574
19837323 101 17918275333253293124
21040471 1 18269839705168452237
23552423 10 18260260820361170502
241688 4 18115292393928914314
2748010 2 16750415580520391398
5084963 1 18041267868204737206
68250623 7 18341055112155065902

> <PUBCHEM_SHAPE_MULTIPOLES>
199.93
3.4
1.9
0.89
1.57
0.15
-0.02
0.44
0.06
-1.16
0.34
-0.07
0.04
-0.58

> <PUBCHEM_SHAPE_SELFOVERLAP>
394.57

> <PUBCHEM_SHAPE_VOLUME>
118.5

> <PUBCHEM_COORDINATE_TYPE>
2
5
10

$$$$
