96325
  -OEChem-11232109053D

 34 35  0     0  0  0  0  0  0999 V2000
   -1.2081    1.1297   -0.2995 O   0  0  0  0  0  0  0  0  0  0  0  0
    0.1663    0.1954    1.3000 O   0  0  0  0  0  0  0  0  0  0  0  0
   -2.3769    0.5138    0.2306 C   0  0  0  0  0  0  0  0  0  0  0  0
   -3.6196    1.1666   -0.3734 C   0  0  0  0  0  0  0  0  0  0  0  0
   -2.3375   -0.9878   -0.0496 C   0  0  0  0  0  0  0  0  0  0  0  0
   -4.8979    0.4756    0.0899 C   0  0  0  0  0  0  0  0  0  0  0  0
   -3.6157   -1.6789    0.4138 C   0  0  0  0  0  0  0  0  0  0  0  0
   -4.8576   -1.0253   -0.1879 C   0  0  0  0  0  0  0  0  0  0  0  0
   -0.0151    0.6587    0.1822 C   0  0  0  0  0  0  0  0  0  0  0  0
    1.0410    0.8039   -0.8875 C   0  0  0  0  0  0  0  0  0  0  0  0
    2.3863    0.2757   -0.4612 C   0  0  0  0  0  0  0  0  0  0  0  0
    3.2851    1.1259    0.1665 C   0  0  0  0  0  0  0  0  0  0  0  0
    2.7054   -1.0527   -0.7024 C   0  0  0  0  0  0  0  0  0  0  0  0
    4.5304    0.6371    0.5613 C   0  0  0  0  0  0  0  0  0  0  0  0
    3.9507   -1.5414   -0.3074 C   0  0  0  0  0  0  0  0  0  0  0  0
    4.8631   -0.6964    0.3245 C   0  0  0  0  0  0  0  0  0  0  0  0
   -2.3975    0.6859    1.3154 H   0  0  0  0  0  0  0  0  0  0  0  0
   -3.5551    1.1380   -1.4690 H   0  0  0  0  0  0  0  0  0  0  0  0
   -3.6471    2.2297   -0.1058 H   0  0  0  0  0  0  0  0  0  0  0  0
   -1.4865   -1.4714    0.4412 H   0  0  0  0  0  0  0  0  0  0  0  0
   -2.1931   -1.1569   -1.1250 H   0  0  0  0  0  0  0  0  0  0  0  0
   -5.7622    0.9210   -0.4153 H   0  0  0  0  0  0  0  0  0  0  0  0
   -5.0343    0.6437    1.1652 H   0  0  0  0  0  0  0  0  0  0  0  0
   -3.6762   -1.6387    1.5084 H   0  0  0  0  0  0  0  0  0  0  0  0
   -3.5854   -2.7379    0.1338 H   0  0  0  0  0  0  0  0  0  0  0  0
   -5.7576   -1.4997    0.2192 H   0  0  0  0  0  0  0  0  0  0  0  0
   -4.8691   -1.1950   -1.2716 H   0  0  0  0  0  0  0  0  0  0  0  0
    1.1275    1.8652   -1.1500 H   0  0  0  0  0  0  0  0  0  0  0  0
    0.7047    0.2697   -1.7844 H   0  0  0  0  0  0  0  0  0  0  0  0
    3.0347    2.1656    0.3575 H   0  0  0  0  0  0  0  0  0  0  0  0
    2.0008   -1.7194   -1.1915 H   0  0  0  0  0  0  0  0  0  0  0  0
    5.2406    1.2948    1.0539 H   0  0  0  0  0  0  0  0  0  0  0  0
    4.2097   -2.5800   -0.4911 H   0  0  0  0  0  0  0  0  0  0  0  0
    5.8325   -1.0771    0.6324 H   0  0  0  0  0  0  0  0  0  0  0  0
  1  3  1  0  0  0  0
  1  9  1  0  0  0  0
  2  9  2  0  0  0  0
  3  4  1  0  0  0  0
  3  5  1  0  0  0  0
  3 17  1  0  0  0  0
  4  6  1  0  0  0  0
  4 18  1  0  0  0  0
  4 19  1  0  0  0  0
  5  7  1  0  0  0  0
  5 20  1  0  0  0  0
  5 21  1  0  0  0  0
  6  8  1  0  0  0  0
  6 22  1  0  0  0  0
  6 23  1  0  0  0  0
  7  8  1  0  0  0  0
  7 24  1  0  0  0  0
  7 25  1  0  0  0  0
  8 26  1  0  0  0  0
  8 27  1  0  0  0  0
  9 10  1  0  0  0  0
 10 11  1  0  0  0  0
 10 28  1  0  0  0  0
 10 29  1  0  0  0  0
 11 12  2  0  0  0  0
 11 13  1  0  0  0  0
 12 14  1  0  0  0  0
 12 30  1  0  0  0  0
 13 15  2  0  0  0  0
 13 31  1  0  0  0  0
 14 16  2  0  0  0  0
 14 32  1  0  0  0  0
 15 16  1  0  0  0  0
 15 33  1  0  0  0  0
 16 34  1  0  0  0  0
M  END
> <PUBCHEM_COMPOUND_CID>
96325

> <PUBCHEM_CONFORMER_RMSD>
0.6

> <PUBCHEM_CONFORMER_DIVERSEORDER>
1
65
29
47
86
37
129
44
93
84
73
137
8
45
50
26
87
83
96
138
88
6
72
127
128
95
89
126
76
110
19
46
13
34
27
40
115
5
64
108
58
130
2
61
75
36
80
68
23
51
81
78
94
134
12
69
28
33
32
131
82
57
62
53
52
71
99
90
16
10
15
54
106
43
7
123
3
116
31
114
67
103
101
39
74
102
135
14
124
63
98
4
41
60
22
125
77
20
25
9
111
97
109
38
107
55
118
121
122
56
113
136
24
91
105
100
49
92
66
120
11
104
117
18
132
112
42
79
133
35
70
59
17
30
48
21
119
85

> <PUBCHEM_MMFF94_PARTIAL_CHARGES>
16
1 -0.43
10 0.2
11 -0.14
12 -0.15
13 -0.15
14 -0.15
15 -0.15
16 -0.15
2 -0.57
3 0.28
30 0.15
31 0.15
32 0.15
33 0.15
34 0.15
9 0.66

> <PUBCHEM_EFFECTIVE_ROTOR_COUNT>
5.2

> <PUBCHEM_PHARMACOPHORE_FEATURES>
3
1 2 acceptor
6 11 12 13 14 15 16 rings
6 3 4 5 6 7 8 rings

> <PUBCHEM_HEAVY_ATOM_COUNT>
16

> <PUBCHEM_ATOM_DEF_STEREO_COUNT>
0

> <PUBCHEM_ATOM_UDEF_STEREO_COUNT>
0

> <PUBCHEM_BOND_DEF_STEREO_COUNT>
0

> <PUBCHEM_BOND_UDEF_STEREO_COUNT>
0

> <PUBCHEM_ISOTOPIC_ATOM_COUNT>
0

> <PUBCHEM_COMPONENT_COUNT>
1

> <PUBCHEM_CACTVS_TAUTO_COUNT>
1

> <PUBCHEM_CONFORMER_ID>
0001784500000001

> <PUBCHEM_MMFF94_ENERGY>
27.7885

> <PUBCHEM_FEATURE_SELFOVERLAP>
15.223

> <PUBCHEM_SHAPE_FINGERPRINT>
10366900 7 14117798024611112135
10465860 250 17988924465997382393
11287383 113 18410854382234009808
12596602 18 15410889691037816943
13167823 11 18408884035853600890
13675066 3 18411701006160880615
14123238 8 18410856572535344996
14251731 8 18335984190397351879
14251764 18 18059862783711609179
14252887 29 17060348405075518436
15196674 1 18411419513936034319
15375358 24 18273498965933965407
15788980 27 18186522102892418145
17834072 14 18411140246662041582
17834072 8 18040994025522074815
17834074 16 18412545409568852663
18186145 218 15791736342401517453
19141452 34 18409169917962499607
200 152 18130786754505078536
20279233 1 18271813423098110615
20374829 77 18333729117781741523
20645477 70 18272653411617442734
21079973 296 18409449210547301587
21250096 35 18343864411418295498
22485316 2 18343864433093617975
22646028 1 17894630352883081696
22854114 59 13254797927695713393
23402539 116 18113330903623500341
23557571 272 18336544932521792476
23559900 14 18412542119877222080
239999 70 18273502260849179806
26918003 58 18272367551410213008
3268164 11 16805314475288935117
33824 294 18411980235497832630
42 15 18411139129849037076
4214541 1 18410575054909908021
4921388 177 16805896194423851083
4990 188 18113617871873802048
5104073 3 18413390929667984825
522135 26 11241969278922930008
5374978 207 17846497019811966976
559249 180 18187640254905326507
5924683 9 17988074612708902799
633830 44 16732709354266760365
67856867 119 18116154548648192012
69090 78 18410009940071280494
7495541 125 17917706954461333473
76465 3 17968930886971777922
77779 3 18411139138465494717
9709674 26 18410300224015684118
9971528 1 17749108907095464772

> <PUBCHEM_SHAPE_MULTIPOLES>
317.53
11.66
1.54
0.85
1.59
0.38
0.04
2.41
0.62
0.24
-0.07
-0.24
-0.02
0.44

> <PUBCHEM_SHAPE_SELFOVERLAP>
656.826

> <PUBCHEM_SHAPE_VOLUME>
179.5

> <PUBCHEM_COORDINATE_TYPE>
2
5
10

$$$$
