97707
  -OEChem-11232109113D

 30 30  0     1  0  0  0  0  0999 V2000
   -1.1175   -1.0011    0.1232 O   0  0  0  0  0  0  0  0  0  0  0  0
   -3.0293   -2.2431   -0.1293 O   0  0  0  0  0  0  0  0  0  0  0  0
   -0.8246    0.3903    0.3228 C   0  0  2  0  0  0  0  0  0  0  0  0
   -1.9936    1.1140   -0.3240 C   0  0  1  0  0  0  0  0  0  0  0  0
    0.5176    0.7180   -0.3075 C   0  0  0  0  0  0  0  0  0  0  0  0
   -3.1456    0.1746   -0.0212 C   0  0  0  0  0  0  0  0  0  0  0  0
    1.6528   -0.0634    0.3537 C   0  0  0  0  0  0  0  0  0  0  0  0
   -2.2092    2.5238    0.1983 C   0  0  0  0  0  0  0  0  0  0  0  0
   -2.4671   -1.1636   -0.0302 C   0  0  0  0  0  0  0  0  0  0  0  0
    2.9978    0.2442   -0.3063 C   0  0  0  0  0  0  0  0  0  0  0  0
    4.1378   -0.5113    0.3763 C   0  0  0  0  0  0  0  0  0  0  0  0
    5.4810   -0.1824   -0.2556 C   0  0  0  0  0  0  0  0  0  0  0  0
   -0.7882    0.5692    1.4053 H   0  0  0  0  0  0  0  0  0  0  0  0
   -1.8547    1.1511   -1.4132 H   0  0  0  0  0  0  0  0  0  0  0  0
    0.7173    1.7928   -0.2285 H   0  0  0  0  0  0  0  0  0  0  0  0
    0.4970    0.4637   -1.3748 H   0  0  0  0  0  0  0  0  0  0  0  0
   -3.9151    0.2251   -0.7957 H   0  0  0  0  0  0  0  0  0  0  0  0
   -3.5823    0.3447    0.9676 H   0  0  0  0  0  0  0  0  0  0  0  0
    1.6993    0.1912    1.4195 H   0  0  0  0  0  0  0  0  0  0  0  0
    1.4600   -1.1408    0.2876 H   0  0  0  0  0  0  0  0  0  0  0  0
   -1.3532    3.1635   -0.0383 H   0  0  0  0  0  0  0  0  0  0  0  0
   -3.0996    2.9701   -0.2564 H   0  0  0  0  0  0  0  0  0  0  0  0
   -2.3465    2.5323    1.2848 H   0  0  0  0  0  0  0  0  0  0  0  0
    2.9591   -0.0285   -1.3680 H   0  0  0  0  0  0  0  0  0  0  0  0
    3.1920    1.3226   -0.2567 H   0  0  0  0  0  0  0  0  0  0  0  0
    4.1706   -0.2539    1.4413 H   0  0  0  0  0  0  0  0  0  0  0  0
    3.9619   -1.5912    0.3086 H   0  0  0  0  0  0  0  0  0  0  0  0
    5.4932   -0.4559   -1.3155 H   0  0  0  0  0  0  0  0  0  0  0  0
    6.2815   -0.7343    0.2468 H   0  0  0  0  0  0  0  0  0  0  0  0
    5.7020    0.8865   -0.1736 H   0  0  0  0  0  0  0  0  0  0  0  0
  1  3  1  0  0  0  0
  1  9  1  0  0  0  0
  2  9  2  0  0  0  0
  3  4  1  0  0  0  0
  3  5  1  0  0  0  0
  3 13  1  0  0  0  0
  4  6  1  0  0  0  0
  4  8  1  0  0  0  0
  4 14  1  0  0  0  0
  5  7  1  0  0  0  0
  5 15  1  0  0  0  0
  5 16  1  0  0  0  0
  6  9  1  0  0  0  0
  6 17  1  0  0  0  0
  6 18  1  0  0  0  0
  7 10  1  0  0  0  0
  7 19  1  0  0  0  0
  7 20  1  0  0  0  0
  8 21  1  0  0  0  0
  8 22  1  0  0  0  0
  8 23  1  0  0  0  0
 10 11  1  0  0  0  0
 10 24  1  0  0  0  0
 10 25  1  0  0  0  0
 11 12  1  0  0  0  0
 11 26  1  0  0  0  0
 11 27  1  0  0  0  0
 12 28  1  0  0  0  0
 12 29  1  0  0  0  0
 12 30  1  0  0  0  0
M  END
> <PUBCHEM_COMPOUND_CID>
97707

> <PUBCHEM_CONFORMER_RMSD>
0.6

> <PUBCHEM_CONFORMER_DIVERSEORDER>
1
87
79
94
17
86
6
84
8
80
78
30
90
70
93
5
63
3
23
71
73
54
66
25
18
72
27
65
85
81
28
32
59
91
29
38
22
64
9
74
35
40
82
61
21
45
76
24
56
75
14
26
15
89
36
57
69
67
92
77
2
46
16
20
49
37
33
13
19
88
58
42
31
83
68
43
47
52
11
55
51
41
50
12
60
53
44
7
62
10
34
4
48
39

> <PUBCHEM_MMFF94_PARTIAL_CHARGES>
5
1 -0.43
2 -0.57
3 0.28
6 0.06
9 0.66

> <PUBCHEM_EFFECTIVE_ROTOR_COUNT>
4.8

> <PUBCHEM_PHARMACOPHORE_FEATURES>
4
1 12 hydrophobe
1 2 acceptor
4 5 7 10 11 hydrophobe
5 1 3 4 6 9 rings

> <PUBCHEM_HEAVY_ATOM_COUNT>
12

> <PUBCHEM_ATOM_DEF_STEREO_COUNT>
0

> <PUBCHEM_ATOM_UDEF_STEREO_COUNT>
2

> <PUBCHEM_BOND_DEF_STEREO_COUNT>
0

> <PUBCHEM_BOND_UDEF_STEREO_COUNT>
0

> <PUBCHEM_ISOTOPIC_ATOM_COUNT>
0

> <PUBCHEM_COMPONENT_COUNT>
1

> <PUBCHEM_CACTVS_TAUTO_COUNT>
2

> <PUBCHEM_CONFORMER_ID>
00017DAB00000001

> <PUBCHEM_MMFF94_ENERGY>
7.1892

> <PUBCHEM_FEATURE_SELFOVERLAP>
20.297

> <PUBCHEM_SHAPE_FINGERPRINT>
10014705 185 17968091997800991780
10680689 15 18409456868985556936
12500047 106 18268140972794369880
12757275 245 18409450318812647494
12932764 1 17531237336419432984
13024252 1 14851608761111258693
13167823 11 18334573513185458642
14965852 173 18410011035451516776
17834072 33 18261397780335996548
17870717 6 18270975561236846398
1986462 14 18410294696814247732
20279233 1 17703794699877444358
20300324 65 18334859441594459392
20645477 56 18339928095419628097
20871998 184 18273497896676947935
21061003 4 16988845016015571657
21426921 1 18410573976619805205
22485316 2 18408319965551901858
2306618 200 18202290177698105977
23380061 127 18410290302936194172
23402539 116 18343011178169921565
23557571 272 18130514041694649228
23559900 14 18341040904677511912
4214541 1 18410575046652152844
573450 72 18261381210077719194
58051976 100 18408604751573812622
77779 3 18411139126340066172

> <PUBCHEM_SHAPE_MULTIPOLES>
235.22
8.66
1.84
0.67
13.58
0.17
0
-1.4
-0.36
-2.81
0.02
0.11
0.04
-0.2

> <PUBCHEM_SHAPE_SELFOVERLAP>
455.126

> <PUBCHEM_SHAPE_VOLUME>
145.6

> <PUBCHEM_COORDINATE_TYPE>
2
5
10

$$$$
