97730
  -OEChem-11232109483D

 27 26  0     0  0  0  0  0  0999 V2000
   -4.6928   -0.4102   -1.1096 O   0  0  0  0  0  0  0  0  0  0  0  0
   -4.1884    1.1844    0.4422 O   0  0  0  0  0  0  0  0  0  0  0  0
    2.2571   -0.5262    0.3090 C   0  0  0  0  0  0  0  0  0  0  0  0
    3.4155    0.3773   -0.1268 C   0  0  0  0  0  0  0  0  0  0  0  0
    0.8954    0.1767    0.2810 C   0  0  0  0  0  0  0  0  0  0  0  0
    4.7718   -0.3291   -0.1310 C   0  0  0  0  0  0  0  0  0  0  0  0
   -0.2648   -0.7281    0.7128 C   0  0  0  0  0  0  0  0  0  0  0  0
    5.8829    0.6076   -0.5810 C   0  0  0  0  0  0  0  0  0  0  0  0
   -1.6093   -0.0640    0.6162 C   0  0  0  0  0  0  0  0  0  0  0  0
   -2.5857   -0.4961   -0.1930 C   0  0  0  0  0  0  0  0  0  0  0  0
   -3.8816    0.2076   -0.2199 C   0  0  0  0  0  0  0  0  0  0  0  0
    2.4510   -0.8958    1.3234 H   0  0  0  0  0  0  0  0  0  0  0  0
    2.2209   -1.4044   -0.3472 H   0  0  0  0  0  0  0  0  0  0  0  0
    3.4614    1.2464    0.5413 H   0  0  0  0  0  0  0  0  0  0  0  0
    3.2075    0.7629   -1.1327 H   0  0  0  0  0  0  0  0  0  0  0  0
    0.9308    1.0581    0.9338 H   0  0  0  0  0  0  0  0  0  0  0  0
    0.7072    0.5461   -0.7352 H   0  0  0  0  0  0  0  0  0  0  0  0
    4.7366   -1.1960   -0.8007 H   0  0  0  0  0  0  0  0  0  0  0  0
    4.9979   -0.7033    0.8740 H   0  0  0  0  0  0  0  0  0  0  0  0
   -0.1108   -1.0417    1.7525 H   0  0  0  0  0  0  0  0  0  0  0  0
   -0.2490   -1.6435    0.1079 H   0  0  0  0  0  0  0  0  0  0  0  0
    5.7002    0.9742   -1.5961 H   0  0  0  0  0  0  0  0  0  0  0  0
    5.9630    1.4708    0.0874 H   0  0  0  0  0  0  0  0  0  0  0  0
    6.8441    0.0842   -0.5767 H   0  0  0  0  0  0  0  0  0  0  0  0
   -1.7644    0.8017    1.2554 H   0  0  0  0  0  0  0  0  0  0  0  0
   -2.4493   -1.3595   -0.8351 H   0  0  0  0  0  0  0  0  0  0  0  0
   -5.5722    0.0208   -1.1661 H   0  0  0  0  0  0  0  0  0  0  0  0
  1 11  1  0  0  0  0
  1 27  1  0  0  0  0
  2 11  2  0  0  0  0
  3  4  1  0  0  0  0
  3  5  1  0  0  0  0
  3 12  1  0  0  0  0
  3 13  1  0  0  0  0
  4  6  1  0  0  0  0
  4 14  1  0  0  0  0
  4 15  1  0  0  0  0
  5  7  1  0  0  0  0
  5 16  1  0  0  0  0
  5 17  1  0  0  0  0
  6  8  1  0  0  0  0
  6 18  1  0  0  0  0
  6 19  1  0  0  0  0
  7  9  1  0  0  0  0
  7 20  1  0  0  0  0
  7 21  1  0  0  0  0
  8 22  1  0  0  0  0
  8 23  1  0  0  0  0
  8 24  1  0  0  0  0
  9 10  2  3  0  0  0
  9 25  1  0  0  0  0
 10 11  1  0  0  0  0
 10 26  1  0  0  0  0
M  END
> <PUBCHEM_COMPOUND_CID>
97730

> <PUBCHEM_CONFORMER_RMSD>
0.6

> <PUBCHEM_CONFORMER_DIVERSEORDER>
1
65
112
73
97
70
36
4
83
44
103
86
3
117
18
89
106
115
34
116
62
51
118
69
96
71
53
11
27
52
108
100
6
54
98
20
75
107
2
47
13
101
87
111
61
56
114
12
110
48
102
77
5
32
28
33
80
37
104
78
26
42
99
45
38
22
10
57
17
67
59
29
21
113
72
85
14
64
90
30
46
74
76
19
15
79
8
43
93
58
41
55
31
95
68
35
94
60
9
105
16
92
82
88
91
23
84
40
7
50
66
109
24
25
39
49
81
63

> <PUBCHEM_MMFF94_PARTIAL_CHARGES>
9
1 -0.65
10 -0.14
11 0.71
2 -0.57
25 0.15
26 0.15
27 0.5
7 0.14
9 -0.29

> <PUBCHEM_EFFECTIVE_ROTOR_COUNT>
6

> <PUBCHEM_PHARMACOPHORE_FEATURES>
6
1 1 acceptor
1 2 acceptor
1 8 hydrophobe
3 1 2 11 anion
3 3 4 6 hydrophobe
3 5 7 9 hydrophobe

> <PUBCHEM_HEAVY_ATOM_COUNT>
11

> <PUBCHEM_ATOM_DEF_STEREO_COUNT>
0

> <PUBCHEM_ATOM_UDEF_STEREO_COUNT>
0

> <PUBCHEM_BOND_DEF_STEREO_COUNT>
0

> <PUBCHEM_BOND_UDEF_STEREO_COUNT>
1

> <PUBCHEM_ISOTOPIC_ATOM_COUNT>
0

> <PUBCHEM_COMPONENT_COUNT>
1

> <PUBCHEM_CACTVS_TAUTO_COUNT>
1

> <PUBCHEM_CONFORMER_ID>
00017DC200000001

> <PUBCHEM_MMFF94_ENERGY>
4.0412

> <PUBCHEM_FEATURE_SELFOVERLAP>
30.514

> <PUBCHEM_SHAPE_FINGERPRINT>
100836 57 17240771687667142948
11062470 55 18187085053009408786
11401426 45 18335138713411137858
114248 4 17775565351271285114
13690532 89 14477245959648592210
14123238 8 18259703402071996606
1420 363 13686301292345384284
14251718 22 17489586783802683652
14252887 29 9511472134454730944
14455015 7 13686303491089039076
15501527 16 16877949364560703620
15501527 24 18272932743410402748
17834072 33 17632574989661238684
17834076 25 18187366532444513018
18342897 14 14201396088504392886
187816 3 17988926677710328554
20300324 65 18201720639317690665
20432913 95 10592049067729629172
20645477 56 16443065019342087970
20645477 70 18338800005760115430
20719005 15 11887956545223064912
20767249 13 13686296872433698312
20767249 213 16515404087992606454
20828058 44 10737290142669163617
21119208 17 17989487424508855642
22485316 2 16702019764411480998
23402539 116 18131348592141279852
23402655 69 18412261701193193908
366044 4 17821447967214265610
42 15 8358260345581882954
42788 4 18408042914227852304
449060 50 15791734096344624754
49783359 22 9151173134298653104

> <PUBCHEM_SHAPE_MULTIPOLES>
214.64
12.78
0.89
0.83
6.64
0.03
0.05
-3.91
2.1
0.15
-0.06
-0.71
-0.05
-0.18

> <PUBCHEM_SHAPE_SELFOVERLAP>
392.908

> <PUBCHEM_SHAPE_VOLUME>
136.2

> <PUBCHEM_COORDINATE_TYPE>
2
5
10

$$$$
