97799
  -OEChem-11232108533D

 28 28  0     1  0  0  0  0  0999 V2000
   -0.7216   -2.7747    0.8016 N   0  0  0  0  0  0  0  0  0  0  0  0
   -1.3371    0.5590   -0.0031 C   0  0  0  0  0  0  0  0  0  0  0  0
   -0.2852   -0.4848   -0.4363 C   0  0  1  0  0  0  0  0  0  0  0  0
   -2.7727    0.1339   -0.3361 C   0  0  0  0  0  0  0  0  0  0  0  0
   -3.7798    1.2022    0.0918 C   0  0  0  0  0  0  0  0  0  0  0  0
    1.1456   -0.0232   -0.2230 C   0  0  0  0  0  0  0  0  0  0  0  0
   -5.2080    0.7686   -0.1974 C   0  0  0  0  0  0  0  0  0  0  0  0
    1.4357    0.7818    0.8618 C   0  0  0  0  0  0  0  0  0  0  0  0
    2.1192   -0.4209   -1.1191 C   0  0  0  0  0  0  0  0  0  0  0  0
   -0.5285   -1.7673    0.2587 C   0  0  0  0  0  0  0  0  0  0  0  0
    2.7499    1.2058    1.0580 C   0  0  0  0  0  0  0  0  0  0  0  0
    3.4335    0.0031   -0.9227 C   0  0  0  0  0  0  0  0  0  0  0  0
    3.7489    0.8164    0.1658 C   0  0  0  0  0  0  0  0  0  0  0  0
   -1.2992    0.7306    1.0797 H   0  0  0  0  0  0  0  0  0  0  0  0
   -1.1241    1.5195   -0.4905 H   0  0  0  0  0  0  0  0  0  0  0  0
   -0.4279   -0.6479   -1.5139 H   0  0  0  0  0  0  0  0  0  0  0  0
   -2.8623   -0.0437   -1.4146 H   0  0  0  0  0  0  0  0  0  0  0  0
   -3.0208   -0.8065    0.1690 H   0  0  0  0  0  0  0  0  0  0  0  0
   -3.6778    1.4033    1.1646 H   0  0  0  0  0  0  0  0  0  0  0  0
   -3.5734    2.1408   -0.4357 H   0  0  0  0  0  0  0  0  0  0  0  0
   -5.4571   -0.1491    0.3447 H   0  0  0  0  0  0  0  0  0  0  0  0
   -5.9109    1.5479    0.1133 H   0  0  0  0  0  0  0  0  0  0  0  0
   -5.3536    0.5866   -1.2671 H   0  0  0  0  0  0  0  0  0  0  0  0
    0.6949    1.0884    1.5907 H   0  0  0  0  0  0  0  0  0  0  0  0
    1.8842   -1.0553   -1.9685 H   0  0  0  0  0  0  0  0  0  0  0  0
    2.9971    1.8347    1.9082 H   0  0  0  0  0  0  0  0  0  0  0  0
    4.2117   -0.3006   -1.6168 H   0  0  0  0  0  0  0  0  0  0  0  0
    4.7726    1.1453    0.3194 H   0  0  0  0  0  0  0  0  0  0  0  0
  1 10  3  0  0  0  0
  2  3  1  0  0  0  0
  2  4  1  0  0  0  0
  2 14  1  0  0  0  0
  2 15  1  0  0  0  0
  3  6  1  0  0  0  0
  3 10  1  0  0  0  0
  3 16  1  0  0  0  0
  4  5  1  0  0  0  0
  4 17  1  0  0  0  0
  4 18  1  0  0  0  0
  5  7  1  0  0  0  0
  5 19  1  0  0  0  0
  5 20  1  0  0  0  0
  6  8  2  0  0  0  0
  6  9  1  0  0  0  0
  7 21  1  0  0  0  0
  7 22  1  0  0  0  0
  7 23  1  0  0  0  0
  8 11  1  0  0  0  0
  8 24  1  0  0  0  0
  9 12  2  0  0  0  0
  9 25  1  0  0  0  0
 11 13  2  0  0  0  0
 11 26  1  0  0  0  0
 12 13  1  0  0  0  0
 12 27  1  0  0  0  0
 13 28  1  0  0  0  0
M  END
> <PUBCHEM_COMPOUND_CID>
97799

> <PUBCHEM_CONFORMER_RMSD>
0.6

> <PUBCHEM_CONFORMER_DIVERSEORDER>
1
19
17
16
22
20
15
9
8
5
11
4
6
18
10
7
14
12
3
13
2
21

> <PUBCHEM_MMFF94_PARTIAL_CHARGES>
14
1 -0.56
10 0.36
11 -0.15
12 -0.15
13 -0.15
24 0.15
25 0.15
26 0.15
27 0.15
28 0.15
3 0.34
6 -0.14
8 -0.15
9 -0.15

> <PUBCHEM_EFFECTIVE_ROTOR_COUNT>
4

> <PUBCHEM_PHARMACOPHORE_FEATURES>
4
1 1 acceptor
1 7 hydrophobe
4 2 3 4 5 hydrophobe
6 6 8 9 11 12 13 rings

> <PUBCHEM_HEAVY_ATOM_COUNT>
13

> <PUBCHEM_ATOM_DEF_STEREO_COUNT>
0

> <PUBCHEM_ATOM_UDEF_STEREO_COUNT>
1

> <PUBCHEM_BOND_DEF_STEREO_COUNT>
0

> <PUBCHEM_BOND_UDEF_STEREO_COUNT>
0

> <PUBCHEM_ISOTOPIC_ATOM_COUNT>
0

> <PUBCHEM_COMPONENT_COUNT>
1

> <PUBCHEM_CACTVS_TAUTO_COUNT>
1

> <PUBCHEM_CONFORMER_ID>
00017E0700000001

> <PUBCHEM_MMFF94_ENERGY>
22.0393

> <PUBCHEM_FEATURE_SELFOVERLAP>
20.297

> <PUBCHEM_SHAPE_FINGERPRINT>
10608611 8 18129377266693060904
10922049 32 18412829079632554223
11471102 20 17632578240793375652
11543360 7 16630516358820615469
122479 349 18341609381784097680
12251169 10 13767931225439499193
124424 183 18202569484248919134
12500047 106 18337111262946511990
12532896 13 18409725192445820643
13380535 76 18342738524623435438
14115302 16 18334868212260595486
14648413 74 18055912336642732264
15219456 202 18059015111132112498
15775835 57 18335698330095443099
18186145 218 18342735196013166637
200 152 15482675662706064236
20339313 130 9943509848163684663
20645477 56 18334857264004199620
20645477 70 17203334368549487388
21119208 17 16272207479248417965
21524375 3 18412544275876795735
23402539 116 18341321262535191420
23402655 69 17418093208785712829
23559900 14 18341618122965516510
25 1 18272652311746806733
2748010 2 17915749880141616764
276578 36 18113897135000488106
31174 14 12396299287789197974
366044 4 18334858311881059971
4047638 21 18343865519783790244
4990 188 17917713474516957965
6333272 397 18408323311041534945
633830 44 18343579621154392781
69090 78 17847056697021310479
7364860 26 18124591981767678311
81228 2 17973439103193314155
81539 233 17895751795125762427
88987 49 18189342440607279270

> <PUBCHEM_SHAPE_MULTIPOLES>
262.55
7.89
1.74
1
7.54
1.34
0
-4.15
-0.94
0.43
0.67
-0.63
0.08
0.67

> <PUBCHEM_SHAPE_SELFOVERLAP>
526.959

> <PUBCHEM_SHAPE_VOLUME>
152.8

> <PUBCHEM_COORDINATE_TYPE>
2
5
10

$$$$
