97842
  -OEChem-11232109453D

 30 31  0     1  0  0  0  0  0999 V2000
    0.4781    0.7114   -0.4693 O   0  0  0  0  0  0  0  0  0  0  0  0
    0.6428   -1.6703   -0.3279 O   0  0  0  0  0  0  0  0  0  0  0  0
   -0.1993   -0.5184   -0.1652 C   0  0  0  0  0  0  0  0  0  0  0  0
   -0.8514   -0.4935    1.2331 C   0  0  0  0  0  0  0  0  0  0  0  0
   -1.3085   -0.6663   -1.2251 C   0  0  0  0  0  0  0  0  0  0  0  0
   -1.9139    0.5975    1.3594 C   0  0  0  0  0  0  0  0  0  0  0  0
   -2.3818    0.4155   -1.1138 C   0  0  0  0  0  0  0  0  0  0  0  0
   -2.9872    0.4601    0.2848 C   0  0  0  0  0  0  0  0  0  0  0  0
    1.6988    0.8945    0.2490 C   0  0  1  0  0  0  0  0  0  0  0  0
    2.6067   -0.3138    0.0347 C   0  0  0  0  0  0  0  0  0  0  0  0
    1.8649   -1.5896    0.3998 C   0  0  0  0  0  0  0  0  0  0  0  0
    2.3509    2.1729   -0.2595 C   0  0  0  0  0  0  0  0  0  0  0  0
   -0.1057   -0.3372    2.0191 H   0  0  0  0  0  0  0  0  0  0  0  0
   -1.2995   -1.4737    1.4429 H   0  0  0  0  0  0  0  0  0  0  0  0
   -1.7739   -1.6573   -1.1407 H   0  0  0  0  0  0  0  0  0  0  0  0
   -0.8667   -0.6229   -2.2292 H   0  0  0  0  0  0  0  0  0  0  0  0
   -1.4422    1.5847    1.2847 H   0  0  0  0  0  0  0  0  0  0  0  0
   -2.3795    0.5425    2.3501 H   0  0  0  0  0  0  0  0  0  0  0  0
   -3.1714    0.2259   -1.8498 H   0  0  0  0  0  0  0  0  0  0  0  0
   -1.9505    1.3938   -1.3581 H   0  0  0  0  0  0  0  0  0  0  0  0
   -3.5621   -0.4575    0.4611 H   0  0  0  0  0  0  0  0  0  0  0  0
   -3.6920    1.2962    0.3565 H   0  0  0  0  0  0  0  0  0  0  0  0
    1.4775    1.0240    1.3141 H   0  0  0  0  0  0  0  0  0  0  0  0
    3.5293   -0.2233    0.6174 H   0  0  0  0  0  0  0  0  0  0  0  0
    2.8794   -0.3709   -1.0269 H   0  0  0  0  0  0  0  0  0  0  0  0
    2.4694   -2.4631    0.1354 H   0  0  0  0  0  0  0  0  0  0  0  0
    1.6657   -1.6473    1.4750 H   0  0  0  0  0  0  0  0  0  0  0  0
    2.5450    2.1147   -1.3362 H   0  0  0  0  0  0  0  0  0  0  0  0
    1.6824    3.0273   -0.1075 H   0  0  0  0  0  0  0  0  0  0  0  0
    3.2944    2.3714    0.2579 H   0  0  0  0  0  0  0  0  0  0  0  0
  1  3  1  0  0  0  0
  1  9  1  0  0  0  0
  2  3  1  0  0  0  0
  2 11  1  0  0  0  0
  3  4  1  0  0  0  0
  3  5  1  0  0  0  0
  4  6  1  0  0  0  0
  4 13  1  0  0  0  0
  4 14  1  0  0  0  0
  5  7  1  0  0  0  0
  5 15  1  0  0  0  0
  5 16  1  0  0  0  0
  6  8  1  0  0  0  0
  6 17  1  0  0  0  0
  6 18  1  0  0  0  0
  7  8  1  0  0  0  0
  7 19  1  0  0  0  0
  7 20  1  0  0  0  0
  8 21  1  0  0  0  0
  8 22  1  0  0  0  0
  9 10  1  0  0  0  0
  9 12  1  0  0  0  0
  9 23  1  0  0  0  0
 10 11  1  0  0  0  0
 10 24  1  0  0  0  0
 10 25  1  0  0  0  0
 11 26  1  0  0  0  0
 11 27  1  0  0  0  0
 12 28  1  0  0  0  0
 12 29  1  0  0  0  0
 12 30  1  0  0  0  0
M  END
> <PUBCHEM_COMPOUND_CID>
97842

> <PUBCHEM_CONFORMER_RMSD>
0.6

> <PUBCHEM_CONFORMER_DIVERSEORDER>
2
4
1
3

> <PUBCHEM_MMFF94_PARTIAL_CHARGES>
5
1 -0.56
11 0.28
2 -0.56
3 0.56
9 0.28

> <PUBCHEM_EFFECTIVE_ROTOR_COUNT>
2

> <PUBCHEM_PHARMACOPHORE_FEATURES>
4
1 1 acceptor
1 2 acceptor
6 1 2 3 9 10 11 rings
6 3 4 5 6 7 8 rings

> <PUBCHEM_HEAVY_ATOM_COUNT>
12

> <PUBCHEM_ATOM_DEF_STEREO_COUNT>
0

> <PUBCHEM_ATOM_UDEF_STEREO_COUNT>
1

> <PUBCHEM_BOND_DEF_STEREO_COUNT>
0

> <PUBCHEM_BOND_UDEF_STEREO_COUNT>
0

> <PUBCHEM_ISOTOPIC_ATOM_COUNT>
0

> <PUBCHEM_COMPONENT_COUNT>
1

> <PUBCHEM_CACTVS_TAUTO_COUNT>
1

> <PUBCHEM_CONFORMER_ID>
00017E3200000002

> <PUBCHEM_MMFF94_ENERGY>
19.7981

> <PUBCHEM_FEATURE_SELFOVERLAP>
20.334

> <PUBCHEM_SHAPE_FINGERPRINT>
10857977 72 16298111990489089109
12716758 59 15625948607763694399
12932764 1 17894351059892370739
13024252 1 13914539100985967157
13898156 1 17632576024305167395
14817 1 9092014301960430843
14993402 34 18129944468658713678
15775835 57 18130793386008826409
16945 1 18337387141163987654
17357990 137 17631473188330623593
17834069 17 18192170371254379753
19837323 101 16127278699749013361
20645464 45 17313095388803779088
20653085 51 18410289211919672557
21130352 189 18188206507588326084
21930827 45 16443344230728388023
228727 97 17701817902472058917
23552423 10 18272080608634471871
25610 171 16298103181416525069
2748010 2 18191594249042423934
29004967 10 18188493449773574514
369184 2 18187080667805517059
5084963 1 18273204288090409159
528886 8 18340194232988587690
63268167 104 18412821361286062552
77492 1 17918270931054161583

> <PUBCHEM_SHAPE_MULTIPOLES>
235.22
4.09
1.67
1.19
0.38
0.24
-0.09
1.15
-0.01
-1.44
0.08
0.81
-0.02
-0.28

> <PUBCHEM_SHAPE_SELFOVERLAP>
474.295

> <PUBCHEM_SHAPE_VOLUME>
137.2

> <PUBCHEM_COORDINATE_TYPE>
2
5
10

$$$$
