97854
  -OEChem-11232109053D

 24 24  0     1  0  0  0  0  0999 V2000
    2.2216    0.7514   -1.0911 O   0  0  0  0  0  0  0  0  0  0  0  0
    0.8143    0.8921    0.8561 C   0  0  1  0  0  0  0  0  0  0  0  0
   -0.6550    1.3009    0.7587 C   0  0  0  0  0  0  0  0  0  0  0  0
   -1.3885    0.6073   -0.4037 C   0  0  1  0  0  0  0  0  0  0  0  0
    0.9781   -0.6293    0.9507 C   0  0  0  0  0  0  0  0  0  0  0  0
    0.0302   -1.4166    0.0786 C   0  0  0  0  0  0  0  0  0  0  0  0
   -1.0218   -0.8482   -0.5353 C   0  0  0  0  0  0  0  0  0  0  0  0
   -2.9005    0.7732   -0.2389 C   0  0  0  0  0  0  0  0  0  0  0  0
    1.5869    1.4480   -0.3062 C   0  0  0  0  0  0  0  0  0  0  0  0
    0.3348   -2.8788   -0.0688 C   0  0  0  0  0  0  0  0  0  0  0  0
    1.2575    1.3485    1.7500 H   0  0  0  0  0  0  0  0  0  0  0  0
   -0.7428    2.3888    0.6430 H   0  0  0  0  0  0  0  0  0  0  0  0
   -1.1463    1.0493    1.7087 H   0  0  0  0  0  0  0  0  0  0  0  0
   -1.1016    1.0986   -1.3427 H   0  0  0  0  0  0  0  0  0  0  0  0
    0.7911   -0.9327    1.9896 H   0  0  0  0  0  0  0  0  0  0  0  0
    2.0129   -0.9188    0.7293 H   0  0  0  0  0  0  0  0  0  0  0  0
   -1.6518   -1.4558   -1.1811 H   0  0  0  0  0  0  0  0  0  0  0  0
   -3.1690    1.8331   -0.1737 H   0  0  0  0  0  0  0  0  0  0  0  0
   -3.4382    0.3465   -1.0930 H   0  0  0  0  0  0  0  0  0  0  0  0
   -3.2629    0.2753    0.6676 H   0  0  0  0  0  0  0  0  0  0  0  0
    1.5710    2.5463   -0.4137 H   0  0  0  0  0  0  0  0  0  0  0  0
    0.3313   -3.3668    0.9113 H   0  0  0  0  0  0  0  0  0  0  0  0
    1.3211   -3.0174   -0.5232 H   0  0  0  0  0  0  0  0  0  0  0  0
   -0.3982   -3.3930   -0.6994 H   0  0  0  0  0  0  0  0  0  0  0  0
  1  9  2  0  0  0  0
  2  3  1  0  0  0  0
  2  5  1  0  0  0  0
  2  9  1  0  0  0  0
  2 11  1  0  0  0  0
  3  4  1  0  0  0  0
  3 12  1  0  0  0  0
  3 13  1  0  0  0  0
  4  7  1  0  0  0  0
  4  8  1  0  0  0  0
  4 14  1  0  0  0  0
  5  6  1  0  0  0  0
  5 15  1  0  0  0  0
  5 16  1  0  0  0  0
  6  7  2  0  0  0  0
  6 10  1  0  0  0  0
  7 17  1  0  0  0  0
  8 18  1  0  0  0  0
  8 19  1  0  0  0  0
  8 20  1  0  0  0  0
  9 21  1  0  0  0  0
 10 22  1  0  0  0  0
 10 23  1  0  0  0  0
 10 24  1  0  0  0  0
M  END
> <PUBCHEM_COMPOUND_CID>
97854

> <PUBCHEM_CONFORMER_RMSD>
0.4

> <PUBCHEM_CONFORMER_DIVERSEORDER>
3
7
2
6
1
9
5
4
8

> <PUBCHEM_MMFF94_PARTIAL_CHARGES>
10
1 -0.57
10 0.14
17 0.15
2 0.06
21 0.06
4 0.14
5 0.14
6 -0.28
7 -0.29
9 0.45

> <PUBCHEM_EFFECTIVE_ROTOR_COUNT>
1.8

> <PUBCHEM_PHARMACOPHORE_FEATURES>
2
1 1 acceptor
6 2 3 4 5 6 7 rings

> <PUBCHEM_HEAVY_ATOM_COUNT>
10

> <PUBCHEM_ATOM_DEF_STEREO_COUNT>
0

> <PUBCHEM_ATOM_UDEF_STEREO_COUNT>
2

> <PUBCHEM_BOND_DEF_STEREO_COUNT>
0

> <PUBCHEM_BOND_UDEF_STEREO_COUNT>
0

> <PUBCHEM_ISOTOPIC_ATOM_COUNT>
0

> <PUBCHEM_COMPONENT_COUNT>
1

> <PUBCHEM_CACTVS_TAUTO_COUNT>
2

> <PUBCHEM_CONFORMER_ID>
00017E3E00000003

> <PUBCHEM_MMFF94_ENERGY>
8.1286

> <PUBCHEM_FEATURE_SELFOVERLAP>
10.148

> <PUBCHEM_SHAPE_FINGERPRINT>
1 1 18409161082671368357
12423570 1 12653073293046702509
12716758 59 18196933490407825256
13024252 1 15794833812949659356
137420 1 15074746931732257216
14128692 85 17768809767020171559
16945 1 18266736883513039513
18185500 45 17982719792927120387
20653085 51 17751093602798196044
20711985 344 17761769972093300114
21040471 1 18267006431286532433
21930827 45 18053660562208200704
23552423 10 18123186810291453461
241688 4 17257929291313562211
2748010 2 18339350985069281979
4369600 1 18130777988572136865
5084963 1 17678988673651028171
528862 383 18261668156283712379
68250623 7 17749391506841871643

> <PUBCHEM_SHAPE_MULTIPOLES>
199.93
2.63
2.38
0.98
1.95
1.46
0.02
-0.65
-0.49
-1.28
-0.14
-0.28
-0.24
-0.37

> <PUBCHEM_SHAPE_SELFOVERLAP>
395.445

> <PUBCHEM_SHAPE_VOLUME>
118.2

> <PUBCHEM_COORDINATE_TYPE>
2
5
10

$$$$
