97883
  -OEChem-11232108533D

 29 28  0     1  0  0  0  0  0999 V2000
   -0.0411   -0.2767    0.1124 O   0  0  0  0  0  0  0  0  0  0  0  0
   -1.5754   -0.4760   -1.5981 O   0  0  0  0  0  0  0  0  0  0  0  0
    2.3629   -0.6177   -0.0580 C   0  0  2  0  0  0  0  0  0  0  0  0
    2.7501    0.7590    0.5160 C   0  0  0  0  0  0  0  0  0  0  0  0
    1.0100   -0.6136   -0.7822 C   0  0  0  0  0  0  0  0  0  0  0  0
    2.3593   -1.6535    1.0721 C   0  0  0  0  0  0  0  0  0  0  0  0
   -2.3094    0.1418    0.6396 C   0  0  0  0  0  0  0  0  0  0  0  0
    2.8548    1.8501   -0.5399 C   0  0  0  0  0  0  0  0  0  0  0  0
   -1.3004   -0.2425   -0.4283 C   0  0  0  0  0  0  0  0  0  0  0  0
   -2.4553    1.6581    0.6877 C   0  0  0  0  0  0  0  0  0  0  0  0
   -3.6556   -0.5290    0.3788 C   0  0  0  0  0  0  0  0  0  0  0  0
    3.1302   -0.9152   -0.7844 H   0  0  0  0  0  0  0  0  0  0  0  0
    2.0281    1.0706    1.2806 H   0  0  0  0  0  0  0  0  0  0  0  0
    3.7216    0.6743    1.0190 H   0  0  0  0  0  0  0  0  0  0  0  0
    0.8200   -1.6142   -1.1912 H   0  0  0  0  0  0  0  0  0  0  0  0
    1.0237    0.0907   -1.6212 H   0  0  0  0  0  0  0  0  0  0  0  0
    1.6394   -1.3956    1.8561 H   0  0  0  0  0  0  0  0  0  0  0  0
    3.3493   -1.7228    1.5356 H   0  0  0  0  0  0  0  0  0  0  0  0
    2.1028   -2.6465    0.6880 H   0  0  0  0  0  0  0  0  0  0  0  0
   -1.9398   -0.2222    1.6064 H   0  0  0  0  0  0  0  0  0  0  0  0
    3.5240    1.5499   -1.3522 H   0  0  0  0  0  0  0  0  0  0  0  0
    1.8768    2.0943   -0.9646 H   0  0  0  0  0  0  0  0  0  0  0  0
    3.2551    2.7658   -0.0927 H   0  0  0  0  0  0  0  0  0  0  0  0
   -3.1587    1.9592    1.4707 H   0  0  0  0  0  0  0  0  0  0  0  0
   -2.8165    2.0534   -0.2683 H   0  0  0  0  0  0  0  0  0  0  0  0
   -1.4915    2.1353    0.8959 H   0  0  0  0  0  0  0  0  0  0  0  0
   -4.3642   -0.3048    1.1828 H   0  0  0  0  0  0  0  0  0  0  0  0
   -3.5418   -1.6169    0.3194 H   0  0  0  0  0  0  0  0  0  0  0  0
   -4.0960   -0.1913   -0.5659 H   0  0  0  0  0  0  0  0  0  0  0  0
  1  5  1  0  0  0  0
  1  9  1  0  0  0  0
  2  9  2  0  0  0  0
  3  4  1  0  0  0  0
  3  5  1  0  0  0  0
  3  6  1  0  0  0  0
  3 12  1  0  0  0  0
  4  8  1  0  0  0  0
  4 13  1  0  0  0  0
  4 14  1  0  0  0  0
  5 15  1  0  0  0  0
  5 16  1  0  0  0  0
  6 17  1  0  0  0  0
  6 18  1  0  0  0  0
  6 19  1  0  0  0  0
  7  9  1  0  0  0  0
  7 10  1  0  0  0  0
  7 11  1  0  0  0  0
  7 20  1  0  0  0  0
  8 21  1  0  0  0  0
  8 22  1  0  0  0  0
  8 23  1  0  0  0  0
 10 24  1  0  0  0  0
 10 25  1  0  0  0  0
 10 26  1  0  0  0  0
 11 27  1  0  0  0  0
 11 28  1  0  0  0  0
 11 29  1  0  0  0  0
M  END
> <PUBCHEM_COMPOUND_CID>
97883

> <PUBCHEM_CONFORMER_RMSD>
0.6

> <PUBCHEM_CONFORMER_DIVERSEORDER>
4
154
106
229
213
12
238
101
227
206
180
169
131
92
121
36
5
240
226
189
234
98
209
70
232
100
228
220
218
69
89
87
162
172
94
119
53
170
211
107
140
83
113
217
212
128
174
182
148
71
126
133
90
144
193
116
139
24
175
179
236
104
130
230
235
223
86
57
225
80
222
58
115
45
215
11
132
233
135
7
118
239
64
63
97
55
161
38
109
214
163
96
37
216
176
186
178
224
134
56
43
99
201
61
231
143
184
152
28
155
166
103
136
195
123
173
48
151
26
34
142
194
76
150
207
74
88
93
190
40
199
33
219
187
3
25
68
112
203
237
78
85
147
208
114
145
54
200
30
50
77
41
8
185
204
2
62
91
21
42
149
181
153
39
13
29
105
31
160
15
171
84
72
20
127
65
22
110
138
35
205
73
129
46
188
27
60
47
79
158
198
210
124
191
81
117
108
167
9
1
156
52
14
120
111
18
122
164
10
125
49
51
44
192
221
157
16
168
159
177
19
165
202
67
196
146
137
75
66
183
6
95
59
17
102
32
23
197
82
141

> <PUBCHEM_MMFF94_PARTIAL_CHARGES>
5
1 -0.43
2 -0.57
5 0.28
7 0.06
9 0.66

> <PUBCHEM_EFFECTIVE_ROTOR_COUNT>
5

> <PUBCHEM_PHARMACOPHORE_FEATURES>
4
1 2 acceptor
1 6 hydrophobe
1 8 hydrophobe
3 7 10 11 hydrophobe

> <PUBCHEM_HEAVY_ATOM_COUNT>
11

> <PUBCHEM_ATOM_DEF_STEREO_COUNT>
0

> <PUBCHEM_ATOM_UDEF_STEREO_COUNT>
1

> <PUBCHEM_BOND_DEF_STEREO_COUNT>
0

> <PUBCHEM_BOND_UDEF_STEREO_COUNT>
0

> <PUBCHEM_ISOTOPIC_ATOM_COUNT>
0

> <PUBCHEM_COMPONENT_COUNT>
1

> <PUBCHEM_CACTVS_TAUTO_COUNT>
1

> <PUBCHEM_CONFORMER_ID>
00017E5B00000004

> <PUBCHEM_MMFF94_ENERGY>
10.0441

> <PUBCHEM_FEATURE_SELFOVERLAP>
20.297

> <PUBCHEM_SHAPE_FINGERPRINT>
10149128 111 18341057418642044572
10857977 72 15864073182312201151
12162725 195 18341333305681459641
12696612 119 18408888412657533604
12932764 1 17895194368020281414
15310529 11 18342176665580852571
15775835 57 17988645245899692016
170605 34 18341058509658390956
20279233 1 16225764120780681475
20539784 86 18113618988971441984
20671657 1 18334583468755646150
21730867 7 17821728342874293098
22959321 28 18270693059488716529
3248919 1 18202275875398968063
369184 2 18260827077386246443
81228 2 16054881416848203527

> <PUBCHEM_SHAPE_MULTIPOLES>
214.64
5.98
1.64
1.11
1.64
0.52
0.2
0.82
-1.11
-1.08
-0.28
0.11
-0.16
-0.76

> <PUBCHEM_SHAPE_SELFOVERLAP>
394.829

> <PUBCHEM_SHAPE_VOLUME>
137.3

> <PUBCHEM_COORDINATE_TYPE>
2
5
10

$$$$
