97885
  -OEChem-11232109223D

 25 25  0     0  0  0  0  0  0999 V2000
   -0.7612   -0.0778    0.0005 O   0  0  0  0  0  0  0  0  0  0  0  0
   -2.3417   -1.7632   -0.0040 O   0  0  0  0  0  0  0  0  0  0  0  0
    1.6382   -0.4075   -0.0010 C   0  0  0  0  0  0  0  0  0  0  0  0
    0.2911   -1.0483   -0.0025 C   0  0  0  0  0  0  0  0  0  0  0  0
    2.2673   -0.1041   -1.2083 C   0  0  0  0  0  0  0  0  0  0  0  0
    2.2682   -0.1115    1.2077 C   0  0  0  0  0  0  0  0  0  0  0  0
    3.5268    0.4953   -1.2070 C   0  0  0  0  0  0  0  0  0  0  0  0
    3.5277    0.4880    1.2089 C   0  0  0  0  0  0  0  0  0  0  0  0
    4.1569    0.7914    0.0015 C   0  0  0  0  0  0  0  0  0  0  0  0
   -2.0237   -0.5845   -0.0008 C   0  0  0  0  0  0  0  0  0  0  0  0
   -2.9638    0.5569    0.0020 C   0  0  0  0  0  0  0  0  0  0  0  0
   -4.2847    0.3354    0.0006 C   0  0  0  0  0  0  0  0  0  0  0  0
   -5.3012    1.4299    0.0026 C   0  0  0  0  0  0  0  0  0  0  0  0
    0.1874   -1.6901   -0.8872 H   0  0  0  0  0  0  0  0  0  0  0  0
    0.1878   -1.6952    0.8785 H   0  0  0  0  0  0  0  0  0  0  0  0
    1.7857   -0.3277   -2.1566 H   0  0  0  0  0  0  0  0  0  0  0  0
    1.7875   -0.3408    2.1550 H   0  0  0  0  0  0  0  0  0  0  0  0
    4.0166    0.7321   -2.1471 H   0  0  0  0  0  0  0  0  0  0  0  0
    4.0182    0.7193    2.1499 H   0  0  0  0  0  0  0  0  0  0  0  0
    5.1374    1.2585    0.0025 H   0  0  0  0  0  0  0  0  0  0  0  0
   -2.5594    1.5635    0.0048 H   0  0  0  0  0  0  0  0  0  0  0  0
   -4.6756   -0.6786   -0.0023 H   0  0  0  0  0  0  0  0  0  0  0  0
   -5.9360    1.3500   -0.8852 H   0  0  0  0  0  0  0  0  0  0  0  0
   -4.8418    2.4235    0.0053 H   0  0  0  0  0  0  0  0  0  0  0  0
   -5.9372    1.3457    0.8890 H   0  0  0  0  0  0  0  0  0  0  0  0
  1  4  1  0  0  0  0
  1 10  1  0  0  0  0
  2 10  2  0  0  0  0
  3  4  1  0  0  0  0
  3  5  2  0  0  0  0
  3  6  1  0  0  0  0
  4 14  1  0  0  0  0
  4 15  1  0  0  0  0
  5  7  1  0  0  0  0
  5 16  1  0  0  0  0
  6  8  2  0  0  0  0
  6 17  1  0  0  0  0
  7  9  2  0  0  0  0
  7 18  1  0  0  0  0
  8  9  1  0  0  0  0
  8 19  1  0  0  0  0
  9 20  1  0  0  0  0
 10 11  1  0  0  0  0
 11 12  2  3  0  0  0
 11 21  1  0  0  0  0
 12 13  1  0  0  0  0
 12 22  1  0  0  0  0
 13 23  1  0  0  0  0
 13 24  1  0  0  0  0
 13 25  1  0  0  0  0
M  END
> <PUBCHEM_COMPOUND_CID>
97885

> <PUBCHEM_CONFORMER_RMSD>
0.6

> <PUBCHEM_CONFORMER_DIVERSEORDER>
1
20
21
4
14
11
15
2
18
19
5
17
9
13
12
10
8
16
3
6
7

> <PUBCHEM_MMFF94_PARTIAL_CHARGES>
20
1 -0.43
10 0.71
11 -0.14
12 -0.29
13 0.14
16 0.15
17 0.15
18 0.15
19 0.15
2 -0.57
20 0.15
21 0.15
22 0.15
3 -0.14
4 0.42
5 -0.15
6 -0.15
7 -0.15
8 -0.15
9 -0.15

> <PUBCHEM_EFFECTIVE_ROTOR_COUNT>
4

> <PUBCHEM_PHARMACOPHORE_FEATURES>
3
1 13 hydrophobe
1 2 acceptor
6 3 5 6 7 8 9 rings

> <PUBCHEM_HEAVY_ATOM_COUNT>
13

> <PUBCHEM_ATOM_DEF_STEREO_COUNT>
0

> <PUBCHEM_ATOM_UDEF_STEREO_COUNT>
0

> <PUBCHEM_BOND_DEF_STEREO_COUNT>
0

> <PUBCHEM_BOND_UDEF_STEREO_COUNT>
1

> <PUBCHEM_ISOTOPIC_ATOM_COUNT>
0

> <PUBCHEM_COMPONENT_COUNT>
1

> <PUBCHEM_CACTVS_TAUTO_COUNT>
1

> <PUBCHEM_CONFORMER_ID>
00017E5D00000001

> <PUBCHEM_MMFF94_ENERGY>
25.0491

> <PUBCHEM_FEATURE_SELFOVERLAP>
15.223

> <PUBCHEM_SHAPE_FINGERPRINT>
10354089 29 16950287308120038844
11471102 20 16200435780045814000
11543360 7 15769764771942998669
12251169 10 16153708730018745690
12500047 106 18201999962268002686
13675066 3 14345792738846124231
14251717 144 14979962462671485604
14252887 29 13406792207728025048
14445660 50 17386008398661662795
14576447 43 12823298996481200356
15242439 84 17918280848239130302
15375358 24 17846777420761880361
15477762 27 14117525328979843748
177051 138 9151172047592455159
18186145 218 17417542392273015362
19050596 39 17168143468041799544
200 152 13901909998928961403
20279233 1 17561085825612188414
20432913 95 13190342348868839889
20645477 56 18413109468029771423
20645477 70 16271935882606473606
20671657 53 11312049950885630283
20767249 442 18412824676905785057
20871999 31 16773501270544340703
21119208 17 15123508112013413837
212847 35 18411697651754583800
22289505 5 17060055904506835152
22646028 1 11455891356049221005
23048698 100 17022904531864297881
23402539 116 18130780192385803124
23402655 69 16128657457228692864
23557571 272 17988083412664004935
23559900 14 18201444657830855622
3060560 45 16200432468552422972
4028521 119 17917429792122482705
42 15 14129059197059304637
4990 188 17060339612966201069
522135 26 15267344006913695532
5374978 207 16370727006842029149

> <PUBCHEM_SHAPE_MULTIPOLES>
255.8
10.16
1.2
1.07
8.9
0.19
0
-4.82
0.02
0.96
0
-1.35
-0.1
-0.01

> <PUBCHEM_SHAPE_SELFOVERLAP>
519.616

> <PUBCHEM_SHAPE_VOLUME>
148.5

> <PUBCHEM_COORDINATE_TYPE>
2
5
10

$$$$
