9793841
  -OEChem-11232108453D

 25 24  0     1  0  0  0  0  0999 V2000
   -0.5226   -2.1520   -1.1932 S   0  0  0  0  0  0  0  0  0  0  0  0
    2.8216    1.6393   -0.3293 O   0  0  0  0  0  0  0  0  0  0  0  0
    0.0378   -0.9445    0.0896 C   0  0  2  0  0  0  0  0  0  0  0  0
   -1.1731   -0.1140    0.5870 C   0  0  0  0  0  0  0  0  0  0  0  0
    1.1589   -0.0938   -0.5525 C   0  0  0  0  0  0  0  0  0  0  0  0
   -1.8012    0.8439   -0.4347 C   0  0  0  0  0  0  0  0  0  0  0  0
    0.5889   -1.7781    1.2601 C   0  0  0  0  0  0  0  0  0  0  0  0
    1.8062    0.9334    0.3764 C   0  0  0  0  0  0  0  0  0  0  0  0
   -2.9164    1.6659    0.1968 C   0  0  0  0  0  0  0  0  0  0  0  0
   -1.9533   -0.7883    0.9673 H   0  0  0  0  0  0  0  0  0  0  0  0
   -0.8557    0.4786    1.4558 H   0  0  0  0  0  0  0  0  0  0  0  0
    1.9592   -0.7529   -0.9201 H   0  0  0  0  0  0  0  0  0  0  0  0
    0.7976    0.4259   -1.4497 H   0  0  0  0  0  0  0  0  0  0  0  0
   -2.2098    0.2884   -1.2850 H   0  0  0  0  0  0  0  0  0  0  0  0
   -1.0503    1.5377   -0.8257 H   0  0  0  0  0  0  0  0  0  0  0  0
   -0.1635   -2.4722    1.6540 H   0  0  0  0  0  0  0  0  0  0  0  0
    0.8898   -1.1386    2.0971 H   0  0  0  0  0  0  0  0  0  0  0  0
    1.4672   -2.3639    0.9643 H   0  0  0  0  0  0  0  0  0  0  0  0
    2.2712    0.4642    1.2475 H   0  0  0  0  0  0  0  0  0  0  0  0
    1.0770    1.6688    0.7264 H   0  0  0  0  0  0  0  0  0  0  0  0
   -1.4499   -2.7639   -0.4418 H   0  0  0  0  0  0  0  0  0  0  0  0
   -2.5369    2.2717    1.0258 H   0  0  0  0  0  0  0  0  0  0  0  0
   -3.7122    1.0185    0.5789 H   0  0  0  0  0  0  0  0  0  0  0  0
   -3.3548    2.3417   -0.5443 H   0  0  0  0  0  0  0  0  0  0  0  0
    3.4850    0.9889   -0.6162 H   0  0  0  0  0  0  0  0  0  0  0  0
  1  3  1  0  0  0  0
  1 21  1  0  0  0  0
  2  8  1  0  0  0  0
  2 25  1  0  0  0  0
  3  4  1  0  0  0  0
  3  5  1  0  0  0  0
  3  7  1  0  0  0  0
  4  6  1  0  0  0  0
  4 10  1  0  0  0  0
  4 11  1  0  0  0  0
  5  8  1  0  0  0  0
  5 12  1  0  0  0  0
  5 13  1  0  0  0  0
  6  9  1  0  0  0  0
  6 14  1  0  0  0  0
  6 15  1  0  0  0  0
  7 16  1  0  0  0  0
  7 17  1  0  0  0  0
  7 18  1  0  0  0  0
  8 19  1  0  0  0  0
  8 20  1  0  0  0  0
  9 22  1  0  0  0  0
  9 23  1  0  0  0  0
  9 24  1  0  0  0  0
M  END
> <PUBCHEM_COMPOUND_CID>
9793841

> <PUBCHEM_CONFORMER_RMSD>
0.6

> <PUBCHEM_CONFORMER_DIVERSEORDER>
1
23
6
20
10
24
9
15
12
5
18
22
21
16
4
17
19
14
13
8
7
2
11
3

> <PUBCHEM_MMFF94_PARTIAL_CHARGES>
6
1 -0.41
2 -0.68
21 0.18
25 0.4
3 0.23
8 0.28

> <PUBCHEM_EFFECTIVE_ROTOR_COUNT>
4

> <PUBCHEM_PHARMACOPHORE_FEATURES>
3
1 2 acceptor
1 2 donor
1 9 hydrophobe

> <PUBCHEM_HEAVY_ATOM_COUNT>
9

> <PUBCHEM_ATOM_DEF_STEREO_COUNT>
1

> <PUBCHEM_ATOM_UDEF_STEREO_COUNT>
0

> <PUBCHEM_BOND_DEF_STEREO_COUNT>
0

> <PUBCHEM_BOND_UDEF_STEREO_COUNT>
0

> <PUBCHEM_ISOTOPIC_ATOM_COUNT>
0

> <PUBCHEM_COMPONENT_COUNT>
1

> <PUBCHEM_CACTVS_TAUTO_COUNT>
1

> <PUBCHEM_CONFORMER_ID>
0095713100000001

> <PUBCHEM_MMFF94_ENERGY>
15.839

> <PUBCHEM_FEATURE_SELFOVERLAP>
15.223

> <PUBCHEM_SHAPE_FINGERPRINT>
1 1 18339926987243719214
12423570 1 11970715371848240319
170605 34 18338240362561824633
18342897 96 18337111288399720460
20653085 51 18341623637002008316
21040471 1 18341889710062419696
21524375 3 18409728465010323209
23211744 25 17703206512738441353
23211744 41 18263945313710952771
23552449 1 17838332243758291212
23552449 11 17901384489988750955
241688 4 16541589713517612339
3248919 1 17841138958380312041
5084963 1 18190486954538366091
54338 74 17611451317880582364
68250623 7 18409445890527564898

> <PUBCHEM_SHAPE_MULTIPOLES>
183.2
3.33
2.37
1.1
1.62
0.58
0.1
-3.1
-0.05
-0.69
-0.41
-0.16
0.6
-0.42

> <PUBCHEM_SHAPE_SELFOVERLAP>
319.347

> <PUBCHEM_SHAPE_VOLUME>
123.4

> <PUBCHEM_COORDINATE_TYPE>
2
5
10

$$$$
