9793908
  -OEChem-11232109143D

 22 23  0     1  0  0  0  0  0999 V2000
    1.0379    1.5057   -0.0572 O   0  0  0  0  0  0  0  0  0  0  0  0
    3.2879    1.0260    0.0982 O   0  0  0  0  0  0  0  0  0  0  0  0
    1.6745   -0.7938    0.3227 C   0  0  2  0  0  0  0  0  0  0  0  0
    0.2090   -0.6466    0.2064 C   0  0  0  0  0  0  0  0  0  0  0  0
   -0.0784    0.6901    0.0001 C   0  0  0  0  0  0  0  0  0  0  0  0
    2.1240    0.6490    0.1140 C   0  0  0  0  0  0  0  0  0  0  0  0
    2.2790   -1.7140   -0.7234 C   0  0  0  0  0  0  0  0  0  0  0  0
   -0.8034   -1.5855    0.2895 C   0  0  0  0  0  0  0  0  0  0  0  0
   -1.3753    1.1483   -0.1383 C   0  0  0  0  0  0  0  0  0  0  0  0
   -2.4074    0.2117   -0.0607 C   0  0  0  0  0  0  0  0  0  0  0  0
   -2.1232   -1.1472    0.1522 C   0  0  0  0  0  0  0  0  0  0  0  0
   -3.8247    0.6563   -0.2037 C   0  0  0  0  0  0  0  0  0  0  0  0
    1.9428   -1.0973    1.3402 H   0  0  0  0  0  0  0  0  0  0  0  0
    1.9060   -2.7378   -0.6139 H   0  0  0  0  0  0  0  0  0  0  0  0
    2.0452   -1.3789   -1.7407 H   0  0  0  0  0  0  0  0  0  0  0  0
    3.3702   -1.7397   -0.6308 H   0  0  0  0  0  0  0  0  0  0  0  0
   -0.5860   -2.6345    0.4590 H   0  0  0  0  0  0  0  0  0  0  0  0
   -1.5772    2.2018   -0.2999 H   0  0  0  0  0  0  0  0  0  0  0  0
   -2.9304   -1.8729    0.2159 H   0  0  0  0  0  0  0  0  0  0  0  0
   -4.2575    0.8535    0.7821 H   0  0  0  0  0  0  0  0  0  0  0  0
   -3.8962    1.5686   -0.8057 H   0  0  0  0  0  0  0  0  0  0  0  0
   -4.4269   -0.1077   -0.7070 H   0  0  0  0  0  0  0  0  0  0  0  0
  1  5  1  0  0  0  0
  1  6  1  0  0  0  0
  2  6  2  0  0  0  0
  3  4  1  0  0  0  0
  3  6  1  0  0  0  0
  3  7  1  0  0  0  0
  3 13  1  0  0  0  0
  4  5  2  0  0  0  0
  4  8  1  0  0  0  0
  5  9  1  0  0  0  0
  7 14  1  0  0  0  0
  7 15  1  0  0  0  0
  7 16  1  0  0  0  0
  8 11  2  0  0  0  0
  8 17  1  0  0  0  0
  9 10  2  0  0  0  0
  9 18  1  0  0  0  0
 10 11  1  0  0  0  0
 10 12  1  0  0  0  0
 11 19  1  0  0  0  0
 12 20  1  0  0  0  0
 12 21  1  0  0  0  0
 12 22  1  0  0  0  0
M  END
> <PUBCHEM_COMPOUND_CID>
9793908

> <PUBCHEM_CONFORMER_RMSD>
0.4

> <PUBCHEM_CONFORMER_DIVERSEORDER>
1
2

> <PUBCHEM_MMFF94_PARTIAL_CHARGES>
14
1 -0.23
10 -0.14
11 -0.15
12 0.14
17 0.15
18 0.15
19 0.15
2 -0.57
3 0.2
4 -0.14
5 0.08
6 0.66
8 -0.15
9 -0.15

> <PUBCHEM_EFFECTIVE_ROTOR_COUNT>
0.4

> <PUBCHEM_PHARMACOPHORE_FEATURES>
3
1 2 acceptor
5 1 3 4 5 6 rings
6 4 5 8 9 10 11 rings

> <PUBCHEM_HEAVY_ATOM_COUNT>
12

> <PUBCHEM_ATOM_DEF_STEREO_COUNT>
0

> <PUBCHEM_ATOM_UDEF_STEREO_COUNT>
1

> <PUBCHEM_BOND_DEF_STEREO_COUNT>
0

> <PUBCHEM_BOND_UDEF_STEREO_COUNT>
0

> <PUBCHEM_ISOTOPIC_ATOM_COUNT>
0

> <PUBCHEM_COMPONENT_COUNT>
1

> <PUBCHEM_CACTVS_TAUTO_COUNT>
2

> <PUBCHEM_CONFORMER_ID>
0095717400000001

> <PUBCHEM_MMFF94_ENERGY>
27.2604

> <PUBCHEM_FEATURE_SELFOVERLAP>
15.323

> <PUBCHEM_SHAPE_FINGERPRINT>
10608611 8 18410007753933095713
11471102 20 18410288073995873725
12032990 46 18336554837180282187
12423570 1 11082557504212683067
12524768 44 18410294696344944079
12897270 3 18412546547824707508
12932764 1 17603582980960209131
13380535 21 18337967764923688747
13380535 76 18410288146641195450
14325111 11 18410009923223616745
14897335 6 18411975879730607259
14911166 2 18265338308928078031
15219456 202 18412269445029966482
15775835 57 18259984877064564025
161256 15 18264208019659363924
16945 1 18339927124677378225
17844478 74 17968107408370106617
17990270 104 18411420635001509350
18186145 218 18336544894262316341
193761 8 14086561358927391923
20201158 50 18412825776501997262
20588541 1 18410012164827397080
20645477 70 18270393893942737943
20871998 184 18124883618415374279
21040471 1 18336263530453465435
21501502 16 18410849996967028854
23235685 24 18410284835136994689
23402655 69 18340754971904335573
23463225 33 18333724732915401656
23552423 10 18260551134021685282
23559900 14 18411143507497144566
2748010 2 18408890650224679439
369184 2 16298656274214052657
5084963 1 18129658578455473235
528886 8 18410568513405327257
53812653 166 18341326785868506312
63268167 104 18412547595881156521
6333449 129 18339076107183469443
7364860 26 18271805688331593226

> <PUBCHEM_SHAPE_MULTIPOLES>
235.22
4.84
1.72
0.68
1.48
0.28
-0.03
-0.79
-0.41
-0.54
-0.07
-0.07
0.11
0.36

> <PUBCHEM_SHAPE_SELFOVERLAP>
510.59

> <PUBCHEM_SHAPE_VOLUME>
131.3

> <PUBCHEM_COORDINATE_TYPE>
2
5
10

$$$$
