97987
  -OEChem-11232109083D

 32 31  0     1  0  0  0  0  0999 V2000
    1.9656   -0.3869   -0.2572 O   0  0  0  0  0  0  0  0  0  0  0  0
    3.7721   -0.5594    1.1722 O   0  0  0  0  0  0  0  0  0  0  0  0
   -0.8680    0.1992    0.2067 C   0  0  0  0  0  0  0  0  0  0  0  0
   -2.2682    0.5738   -0.2854 C   0  0  0  0  0  0  0  0  0  0  0  0
    0.1739    1.2255   -0.2549 C   0  0  0  0  0  0  0  0  0  0  0  0
   -3.3557   -0.4020    0.1728 C   0  0  0  0  0  0  0  0  0  0  0  0
    1.5798    0.8874    0.2503 C   0  0  2  0  0  0  0  0  0  0  0  0
   -4.7640    0.0118   -0.2562 C   0  0  0  0  0  0  0  0  0  0  0  0
    2.5945    1.9265   -0.2075 C   0  0  0  0  0  0  0  0  0  0  0  0
   -5.8126   -0.9489    0.2838 C   0  0  0  0  0  0  0  0  0  0  0  0
    3.2022   -0.8259    0.1228 C   0  0  0  0  0  0  0  0  0  0  0  0
    3.7803   -1.7014   -0.9474 C   0  0  0  0  0  0  0  0  0  0  0  0
   -0.6091   -0.7978   -0.1684 H   0  0  0  0  0  0  0  0  0  0  0  0
   -0.8676    0.1441    1.3020 H   0  0  0  0  0  0  0  0  0  0  0  0
   -2.2686    0.6217   -1.3814 H   0  0  0  0  0  0  0  0  0  0  0  0
   -2.5177    1.5795    0.0753 H   0  0  0  0  0  0  0  0  0  0  0  0
    0.1759    1.2487   -1.3522 H   0  0  0  0  0  0  0  0  0  0  0  0
   -0.1137    2.2240    0.0956 H   0  0  0  0  0  0  0  0  0  0  0  0
   -3.1331   -1.4007   -0.2225 H   0  0  0  0  0  0  0  0  0  0  0  0
   -3.3226   -0.4808    1.2667 H   0  0  0  0  0  0  0  0  0  0  0  0
    1.5588    0.8475    1.3468 H   0  0  0  0  0  0  0  0  0  0  0  0
   -4.9816    1.0224    0.1084 H   0  0  0  0  0  0  0  0  0  0  0  0
   -4.8246    0.0406   -1.3502 H   0  0  0  0  0  0  0  0  0  0  0  0
    2.2680    2.9361    0.0635 H   0  0  0  0  0  0  0  0  0  0  0  0
    2.7319    1.8880   -1.2941 H   0  0  0  0  0  0  0  0  0  0  0  0
    3.5801    1.7752    0.2424 H   0  0  0  0  0  0  0  0  0  0  0  0
   -5.7982   -0.9713    1.3781 H   0  0  0  0  0  0  0  0  0  0  0  0
   -6.8118   -0.6376   -0.0363 H   0  0  0  0  0  0  0  0  0  0  0  0
   -5.6393   -1.9653   -0.0837 H   0  0  0  0  0  0  0  0  0  0  0  0
    3.8868   -1.1318   -1.8740 H   0  0  0  0  0  0  0  0  0  0  0  0
    3.1376   -2.5718   -1.1016 H   0  0  0  0  0  0  0  0  0  0  0  0
    4.7696   -2.0491   -0.6364 H   0  0  0  0  0  0  0  0  0  0  0  0
  1  7  1  0  0  0  0
  1 11  1  0  0  0  0
  2 11  2  0  0  0  0
  3  4  1  0  0  0  0
  3  5  1  0  0  0  0
  3 13  1  0  0  0  0
  3 14  1  0  0  0  0
  4  6  1  0  0  0  0
  4 15  1  0  0  0  0
  4 16  1  0  0  0  0
  5  7  1  0  0  0  0
  5 17  1  0  0  0  0
  5 18  1  0  0  0  0
  6  8  1  0  0  0  0
  6 19  1  0  0  0  0
  6 20  1  0  0  0  0
  7  9  1  0  0  0  0
  7 21  1  0  0  0  0
  8 10  1  0  0  0  0
  8 22  1  0  0  0  0
  8 23  1  0  0  0  0
  9 24  1  0  0  0  0
  9 25  1  0  0  0  0
  9 26  1  0  0  0  0
 10 27  1  0  0  0  0
 10 28  1  0  0  0  0
 10 29  1  0  0  0  0
 11 12  1  0  0  0  0
 12 30  1  0  0  0  0
 12 31  1  0  0  0  0
 12 32  1  0  0  0  0
M  END
> <PUBCHEM_COMPOUND_CID>
97987

> <PUBCHEM_CONFORMER_RMSD>
0.8

> <PUBCHEM_CONFORMER_DIVERSEORDER>
1
54
11
49
61
124
98
134
25
46
109
24
80
4
137
141
2
120
81
34
94
130
90
18
31
129
84
115
68
47
33
16
138
55
41
107
96
140
127
95
125
122
117
133
12
3
97
13
131
58
51
6
38
19
40
106
103
52
8
74
104
99
132
75
10
59
50
21
7
79
111
23
92
85
53
22
102
100
36
72
15
110
118
57
105
101
62
65
71
142
77
70
44
35
82
121
56
108
29
87
9
73
88
123
128
17
30
63
45
136
14
135
91
113
64
26
78
112
43
67
32
86
139
20
126
37
28
27
83
114
93
89
5
66
76
119
60
42
39
69
116
48

> <PUBCHEM_MMFF94_PARTIAL_CHARGES>
5
1 -0.43
11 0.66
12 0.06
2 -0.57
7 0.28

> <PUBCHEM_EFFECTIVE_ROTOR_COUNT>
7

> <PUBCHEM_PHARMACOPHORE_FEATURES>
3
1 10 hydrophobe
1 2 acceptor
5 3 4 5 6 8 hydrophobe

> <PUBCHEM_HEAVY_ATOM_COUNT>
12

> <PUBCHEM_ATOM_DEF_STEREO_COUNT>
0

> <PUBCHEM_ATOM_UDEF_STEREO_COUNT>
1

> <PUBCHEM_BOND_DEF_STEREO_COUNT>
0

> <PUBCHEM_BOND_UDEF_STEREO_COUNT>
0

> <PUBCHEM_ISOTOPIC_ATOM_COUNT>
0

> <PUBCHEM_COMPONENT_COUNT>
1

> <PUBCHEM_CACTVS_TAUTO_COUNT>
1

> <PUBCHEM_CONFORMER_ID>
00017EC300000001

> <PUBCHEM_MMFF94_ENERGY>
8.8718

> <PUBCHEM_FEATURE_SELFOVERLAP>
15.223

> <PUBCHEM_SHAPE_FINGERPRINT>
10912923 1 17560807688573886713
11858739 19 18272368651349147879
11987891 38 18411420639718339843
12032990 46 18409450263146604973
13675066 3 17846493708386893713
13690532 89 18409449189620967779
13955234 65 18270119140283922976
14251717 144 18412544310041491599
14252887 29 18272650121693449850
14455015 7 18334021601276694211
15477762 27 18411139117459929356
177051 138 18272370849649742573
17834072 8 18260260816503683285
18186145 218 17748820822190413373
1986462 14 17749102267292133917
20281475 54 18262803934868471796
20369508 70 17967523571763852320
20432913 95 18272654541272917195
20645477 70 18408886252167482463
20671657 53 18260546676104120896
20767249 442 9439398025681896606
20871998 22 18269836432941397508
21354914 88 18413390925847770319
21501925 9 18341608205137164472
22485316 2 18340204202235318757
22926399 37 11891338638563482631
23532345 12 18059303062740502049
3060560 45 12829488125879766824
32948 21 17095793322776035709
42 15 17632296752963138723
522135 26 18410014359677004749
5374978 207 17918274277029124273
94968 8 18335986385257723070

> <PUBCHEM_SHAPE_MULTIPOLES>
235.22
11.11
1.59
0.81
13.48
0.19
-0.04
-5.12
-0.39
-1.84
0.26
-0.52
-0.15
0.41

> <PUBCHEM_SHAPE_SELFOVERLAP>
428.945

> <PUBCHEM_SHAPE_VOLUME>
150.4

> <PUBCHEM_COORDINATE_TYPE>
2
5
10

$$$$
