98012
  -OEChem-11232109183D

 42 44  0     1  0  0  0  0  0999 V2000
    0.1035   -0.0020    0.3244 O   0  0  0  0  0  0  0  0  0  0  0  0
    1.0062    1.9298   -0.5435 O   0  0  0  0  0  0  0  0  0  0  0  0
    3.5878    2.1393    0.2741 O   0  0  0  0  0  0  0  0  0  0  0  0
   -2.3163   -0.4190    0.7310 C   0  0  2  0  0  0  0  0  0  0  0  0
   -3.5830    0.2123    0.0773 C   0  0  0  0  0  0  0  0  0  0  0  0
   -2.9237    0.1750   -1.3274 C   0  0  1  0  0  0  0  0  0  0  0  0
   -1.1919    0.5724    0.3039 C   0  0  2  0  0  0  0  0  0  0  0  0
   -2.1278   -1.7304   -0.0830 C   0  0  0  0  0  0  0  0  0  0  0  0
   -1.5976    0.9495   -1.1330 C   0  0  0  0  0  0  0  0  0  0  0  0
   -2.5371   -1.3104   -1.5049 C   0  0  0  0  0  0  0  0  0  0  0  0
   -2.3659   -0.6635    2.2277 C   0  0  0  0  0  0  0  0  0  0  0  0
   -3.9496    1.6290    0.5632 C   0  0  0  0  0  0  0  0  0  0  0  0
   -4.8740   -0.6240    0.1876 C   0  0  0  0  0  0  0  0  0  0  0  0
    1.1195    0.7869   -0.1284 C   0  0  0  0  0  0  0  0  0  0  0  0
    2.4187    0.0716   -0.0567 C   0  0  0  0  0  0  0  0  0  0  0  0
    3.5853    0.7830    0.1407 C   0  0  0  0  0  0  0  0  0  0  0  0
    2.4128   -1.3028   -0.1939 C   0  0  0  0  0  0  0  0  0  0  0  0
    4.7956    0.0923    0.2038 C   0  0  0  0  0  0  0  0  0  0  0  0
    3.6231   -1.9933   -0.1308 C   0  0  0  0  0  0  0  0  0  0  0  0
    4.8145   -1.2958    0.0680 C   0  0  0  0  0  0  0  0  0  0  0  0
   -3.5332    0.5632   -2.1467 H   0  0  0  0  0  0  0  0  0  0  0  0
   -1.1848    1.4532    0.9578 H   0  0  0  0  0  0  0  0  0  0  0  0
   -2.7735   -2.5368    0.2822 H   0  0  0  0  0  0  0  0  0  0  0  0
   -1.1027   -2.1126   -0.0544 H   0  0  0  0  0  0  0  0  0  0  0  0
   -0.8644    0.6756   -1.8990 H   0  0  0  0  0  0  0  0  0  0  0  0
   -1.7729    2.0280   -1.2128 H   0  0  0  0  0  0  0  0  0  0  0  0
   -1.7193   -1.4491   -2.2198 H   0  0  0  0  0  0  0  0  0  0  0  0
   -3.3850   -1.9064   -1.8583 H   0  0  0  0  0  0  0  0  0  0  0  0
   -3.1821   -1.3425    2.4947 H   0  0  0  0  0  0  0  0  0  0  0  0
   -1.4312   -1.1129    2.5799 H   0  0  0  0  0  0  0  0  0  0  0  0
   -2.5140    0.2706    2.7790 H   0  0  0  0  0  0  0  0  0  0  0  0
   -4.7460    2.0503   -0.0614 H   0  0  0  0  0  0  0  0  0  0  0  0
   -4.3173    1.6002    1.5953 H   0  0  0  0  0  0  0  0  0  0  0  0
   -3.1269    2.3464    0.5428 H   0  0  0  0  0  0  0  0  0  0  0  0
   -5.6564   -0.2020   -0.4538 H   0  0  0  0  0  0  0  0  0  0  0  0
   -4.7641   -1.6715   -0.1004 H   0  0  0  0  0  0  0  0  0  0  0  0
   -5.2501   -0.6198    1.2170 H   0  0  0  0  0  0  0  0  0  0  0  0
    1.5032   -1.8704   -0.3653 H   0  0  0  0  0  0  0  0  0  0  0  0
    5.7316    0.6226    0.3578 H   0  0  0  0  0  0  0  0  0  0  0  0
    3.6386   -3.0738   -0.2403 H   0  0  0  0  0  0  0  0  0  0  0  0
    5.7569   -1.8335    0.1160 H   0  0  0  0  0  0  0  0  0  0  0  0
    4.5023    2.4441    0.4036 H   0  0  0  0  0  0  0  0  0  0  0  0
  1  7  1  0  0  0  0
  1 14  1  0  0  0  0
  2 14  2  0  0  0  0
  3 16  1  0  0  0  0
  3 42  1  0  0  0  0
  4  5  1  0  0  0  0
  4  7  1  0  0  0  0
  4  8  1  0  0  0  0
  4 11  1  0  0  0  0
  5  6  1  0  0  0  0
  5 12  1  0  0  0  0
  5 13  1  0  0  0  0
  6  9  1  0  0  0  0
  6 10  1  0  0  0  0
  6 21  1  0  0  0  0
  7  9  1  0  0  0  0
  7 22  1  0  0  0  0
  8 10  1  0  0  0  0
  8 23  1  0  0  0  0
  8 24  1  0  0  0  0
  9 25  1  0  0  0  0
  9 26  1  0  0  0  0
 10 27  1  0  0  0  0
 10 28  1  0  0  0  0
 11 29  1  0  0  0  0
 11 30  1  0  0  0  0
 11 31  1  0  0  0  0
 12 32  1  0  0  0  0
 12 33  1  0  0  0  0
 12 34  1  0  0  0  0
 13 35  1  0  0  0  0
 13 36  1  0  0  0  0
 13 37  1  0  0  0  0
 14 15  1  0  0  0  0
 15 16  1  0  0  0  0
 15 17  2  0  0  0  0
 16 18  2  0  0  0  0
 17 19  1  0  0  0  0
 17 38  1  0  0  0  0
 18 20  1  0  0  0  0
 18 39  1  0  0  0  0
 19 20  2  0  0  0  0
 19 40  1  0  0  0  0
 20 41  1  0  0  0  0
M  END
> <PUBCHEM_COMPOUND_CID>
98012

> <PUBCHEM_CONFORMER_RMSD>
0.6

> <PUBCHEM_CONFORMER_DIVERSEORDER>
10
52
61
44
46
18
26
47
63
17
54
25
51
33
62
37
48
40
55
43
21
29
36
12
49
32
34
23
59
35
24
15
57
9
60
56
28
39
2
13
14
38
27
41
50
42
53
22
16
30
8
58
20
6
19
31
45
7
5
3
11
1
4

> <PUBCHEM_MMFF94_PARTIAL_CHARGES>
16
1 -0.43
14 0.63
15 0.09
16 0.08
17 -0.15
18 -0.15
19 -0.15
2 -0.57
20 -0.15
3 -0.53
38 0.15
39 0.15
40 0.15
41 0.15
42 0.45
7 0.28

> <PUBCHEM_EFFECTIVE_ROTOR_COUNT>
4

> <PUBCHEM_PHARMACOPHORE_FEATURES>
5
1 2 acceptor
1 3 donor
3 5 12 13 hydrophobe
6 15 16 17 18 19 20 rings
7 4 5 6 7 8 9 10 rings

> <PUBCHEM_HEAVY_ATOM_COUNT>
20

> <PUBCHEM_ATOM_DEF_STEREO_COUNT>
0

> <PUBCHEM_ATOM_UDEF_STEREO_COUNT>
3

> <PUBCHEM_BOND_DEF_STEREO_COUNT>
0

> <PUBCHEM_BOND_UDEF_STEREO_COUNT>
0

> <PUBCHEM_ISOTOPIC_ATOM_COUNT>
0

> <PUBCHEM_COMPONENT_COUNT>
1

> <PUBCHEM_CACTVS_TAUTO_COUNT>
4

> <PUBCHEM_CONFORMER_ID>
00017EDC0000000A

> <PUBCHEM_MMFF94_ENERGY>
85.6628

> <PUBCHEM_FEATURE_SELFOVERLAP>
25.371

> <PUBCHEM_SHAPE_FINGERPRINT>
10616163 171 18201998875868253790
11578080 2 17487871506645528432
12107183 9 17696200205254768162
12236239 1 17632296774121516098
12553582 1 18265890264261268846
12592029 89 18272660004656206727
12596599 1 17846229855677180470
12596602 18 16988554745431401538
13167823 11 18272930535549552774
13224815 77 18333448759644116938
13296908 3 18186804690434496034
13533116 47 18272931656694116603
13583140 156 15625927704332106818
13631057 29 17413014745224033790
13675066 3 18261115174944188209
14289901 80 18271522095661855160
14386348 63 17967819344644597106
15196674 1 18410575071783471286
15375358 24 18333729122034471922
15635459 17 18335141956032870738
15788980 27 18334574633844498318
15961568 22 16443633531631924732
17349148 13 16415759721634093253
1813 80 17385727980410522284
18186145 218 17385441025176646248
19050596 39 18202560696450373888
19141452 34 18410293623025217287
19489759 90 15554445154601056427
19930381 70 18120091676417601947
200 152 18201716253992213186
20279233 1 18186242835565957426
20281475 54 18342170098523167948
20645477 70 18411136918463424382
20681651 13 17846216717034618331
21267235 1 18412553101918713310
22094290 60 16008749086995355869
22646028 28 18272929427500783406
23402539 116 16200146578644743793
23557571 272 17313098648989925380
23559900 14 18411975880284800728
26918003 58 18409729547753168498
2838139 119 18198058072309094217
300161 21 17846490431384817256
4214541 1 18341049635965975993
4921388 177 16298680446332355451
5104073 3 18411138034627109121
5161694 15 17749385953628434110
5281201 14 17676207949010414996
542803 24 17894635846510269764
633830 44 17967813860050357848
77779 3 18412545413863657556
9709674 26 18187929529194441690

> <PUBCHEM_SHAPE_MULTIPOLES>
393.98
10.09
1.86
1.22
5.8
0.12
0.23
-1.13
0.74
0.91
-0.13
-1.37
-0.21
0

> <PUBCHEM_SHAPE_SELFOVERLAP>
857.115

> <PUBCHEM_SHAPE_VOLUME>
219.8

> <PUBCHEM_COORDINATE_TYPE>
2
5
10

$$$$
