98054
  -OEChem-11232108473D

 25 25  0     1  0  0  0  0  0999 V2000
   -0.9337    0.0912   -0.1094 O   0  0  0  0  0  0  0  0  0  0  0  0
   -4.5010   -0.0192   -0.3945 O   0  0  0  0  0  0  0  0  0  0  0  0
   -2.5847    1.3537    0.8902 O   0  0  0  0  0  0  0  0  0  0  0  0
    1.4425    0.3706    0.2656 C   0  0  0  0  0  0  0  0  0  0  0  0
    0.0644    0.8386    0.5932 C   0  0  0  0  0  0  0  0  0  0  0  0
   -3.1674   -0.4334   -0.6473 C   0  0  1  0  0  0  0  0  0  0  0  0
    2.0350   -0.6382    1.0249 C   0  0  0  0  0  0  0  0  0  0  0  0
    2.1378    0.9416   -0.8003 C   0  0  0  0  0  0  0  0  0  0  0  0
   -2.2257    0.4587    0.1360 C   0  0  0  0  0  0  0  0  0  0  0  0
   -3.0359   -1.8858   -0.2233 C   0  0  0  0  0  0  0  0  0  0  0  0
    3.3234   -1.0760    0.7186 C   0  0  0  0  0  0  0  0  0  0  0  0
    3.4262    0.5035   -1.1066 C   0  0  0  0  0  0  0  0  0  0  0  0
    4.0190   -0.5053   -0.3471 C   0  0  0  0  0  0  0  0  0  0  0  0
   -0.1104    0.7474    1.6732 H   0  0  0  0  0  0  0  0  0  0  0  0
   -0.0355    1.9020    0.3391 H   0  0  0  0  0  0  0  0  0  0  0  0
   -2.9738   -0.3063   -1.7166 H   0  0  0  0  0  0  0  0  0  0  0  0
    1.5025   -1.0927    1.8562 H   0  0  0  0  0  0  0  0  0  0  0  0
    1.6861    1.7265   -1.4009 H   0  0  0  0  0  0  0  0  0  0  0  0
   -3.7907   -2.5027   -0.7226 H   0  0  0  0  0  0  0  0  0  0  0  0
   -2.0459   -2.2870   -0.4617 H   0  0  0  0  0  0  0  0  0  0  0  0
   -3.1943   -1.9981    0.8555 H   0  0  0  0  0  0  0  0  0  0  0  0
    3.7849   -1.8620    1.3093 H   0  0  0  0  0  0  0  0  0  0  0  0
    3.9677    0.9474   -1.9369 H   0  0  0  0  0  0  0  0  0  0  0  0
    5.0221   -0.8465   -0.5859 H   0  0  0  0  0  0  0  0  0  0  0  0
   -4.6987   -0.1871    0.5428 H   0  0  0  0  0  0  0  0  0  0  0  0
  1  5  1  0  0  0  0
  1  9  1  0  0  0  0
  2  6  1  0  0  0  0
  2 25  1  0  0  0  0
  3  9  2  0  0  0  0
  4  5  1  0  0  0  0
  4  7  2  0  0  0  0
  4  8  1  0  0  0  0
  5 14  1  0  0  0  0
  5 15  1  0  0  0  0
  6  9  1  0  0  0  0
  6 10  1  0  0  0  0
  6 16  1  0  0  0  0
  7 11  1  0  0  0  0
  7 17  1  0  0  0  0
  8 12  2  0  0  0  0
  8 18  1  0  0  0  0
 10 19  1  0  0  0  0
 10 20  1  0  0  0  0
 10 21  1  0  0  0  0
 11 13  2  0  0  0  0
 11 22  1  0  0  0  0
 12 13  1  0  0  0  0
 12 23  1  0  0  0  0
 13 24  1  0  0  0  0
M  END
> <PUBCHEM_COMPOUND_CID>
98054

> <PUBCHEM_CONFORMER_RMSD>
0.6

> <PUBCHEM_CONFORMER_DIVERSEORDER>
2
46
32
6
41
44
19
17
27
39
23
8
30
38
29
3
13
7
45
9
40
20
25
5
12
22
26
37
21
10
15
28
4
16
24
18
14
42
33
31
11
34
35
1
36
43

> <PUBCHEM_MMFF94_PARTIAL_CHARGES>
18
1 -0.43
11 -0.15
12 -0.15
13 -0.15
17 0.15
18 0.15
2 -0.68
22 0.15
23 0.15
24 0.15
25 0.4
3 -0.57
4 -0.14
5 0.42
6 0.34
7 -0.15
8 -0.15
9 0.66

> <PUBCHEM_EFFECTIVE_ROTOR_COUNT>
4

> <PUBCHEM_PHARMACOPHORE_FEATURES>
4
1 2 acceptor
1 2 donor
1 3 acceptor
6 4 7 8 11 12 13 rings

> <PUBCHEM_HEAVY_ATOM_COUNT>
13

> <PUBCHEM_ATOM_DEF_STEREO_COUNT>
0

> <PUBCHEM_ATOM_UDEF_STEREO_COUNT>
1

> <PUBCHEM_BOND_DEF_STEREO_COUNT>
0

> <PUBCHEM_BOND_UDEF_STEREO_COUNT>
0

> <PUBCHEM_ISOTOPIC_ATOM_COUNT>
0

> <PUBCHEM_COMPONENT_COUNT>
1

> <PUBCHEM_CACTVS_TAUTO_COUNT>
1

> <PUBCHEM_CONFORMER_ID>
00017F0600000002

> <PUBCHEM_MMFF94_ENERGY>
20.6553

> <PUBCHEM_FEATURE_SELFOVERLAP>
20.305

> <PUBCHEM_SHAPE_FINGERPRINT>
10751810 167 18342464746011562061
11471102 20 17313106341534626436
11543360 7 17603866757933830543
12932764 1 18334013878118575672
13296908 3 16559032666570326120
14144814 61 18411138021763305464
14250199 8 17240491328960293900
14251717 144 17894347765937284794
14252887 29 15338841945865833318
14350558 41 18272370837134333254
14576447 43 18261109703583302838
15653759 3 16702304533359036969
18186145 218 14996284686863048416
18915474 69 18408323315162409558
190213 19 18409729564669267310
19107657 162 17775286092355502023
19422 9 18410016528693361990
200 152 18040712558708075972
20279233 1 16272207474810779037
20281407 28 17132117961015263543
20645477 70 16805598127735183914
20871998 22 11670966783268649484
21119208 17 18113616785305085479
22485316 2 18411414029267708276
23402539 116 16515681165455510484
23402655 69 17821727213097427924
23557571 272 17917710167508697888
26918003 58 14117515437195459439
3082319 5 18259704510052213724
42 15 13902194785119696543
522135 26 17822006493140004695
581208 293 17749388191712460204
93112 12 18040150742752524071

> <PUBCHEM_SHAPE_MULTIPOLES>
249.93
8.29
1.34
1.02
3.07
0.36
0.01
1.68
-1.67
0.4
0.06
-0.36
-0.07
-0.97

> <PUBCHEM_SHAPE_SELFOVERLAP>
508.614

> <PUBCHEM_SHAPE_VOLUME>
145.2

> <PUBCHEM_COORDINATE_TYPE>
2
5
10

$$$$
