9815980
  -OEChem-11232109233D

 46 46  0     1  0  0  0  0  0999 V2000
   -4.5208   -1.2098   -1.1273 O   0  0  0  0  0  0  0  0  0  0  0  0
   -1.4816    0.0019    0.7294 C   0  0  0  0  0  0  0  0  0  0  0  0
   -2.7334    0.0858   -0.1499 C   0  0  1  0  0  0  0  0  0  0  0  0
   -0.8032    1.3862    0.8660 C   0  0  0  0  0  0  0  0  0  0  0  0
   -0.5460   -1.1184    0.2119 C   0  0  0  0  0  0  0  0  0  0  0  0
   -0.3558    2.0317   -0.4546 C   0  0  0  0  0  0  0  0  0  0  0  0
    0.6497   -1.3948    1.1340 C   0  0  0  0  0  0  0  0  0  0  0  0
    0.8897    2.9263   -0.3365 C   0  0  0  0  0  0  0  0  0  0  0  0
    1.6243   -2.4575    0.6068 C   0  0  0  0  0  0  0  0  0  0  0  0
    2.1680    2.2349    0.1637 C   0  0  0  0  0  0  0  0  0  0  0  0
    2.3914   -2.1226   -0.6810 C   0  0  0  0  0  0  0  0  0  0  0  0
   -3.3732   -1.2961   -0.2929 C   0  0  0  0  0  0  0  0  0  0  0  0
   -3.7167    1.1026    0.4290 C   0  0  0  0  0  0  0  0  0  0  0  0
    2.5811    1.0172   -0.6689 C   0  0  0  0  0  0  0  0  0  0  0  0
    3.6778   -1.2927   -0.5201 C   0  0  0  0  0  0  0  0  0  0  0  0
    3.5486    0.1054    0.0903 C   0  0  0  0  0  0  0  0  0  0  0  0
   -1.7940   -0.2927    1.7420 H   0  0  0  0  0  0  0  0  0  0  0  0
   -2.4703    0.4297   -1.1586 H   0  0  0  0  0  0  0  0  0  0  0  0
    0.0435    1.2781    1.5474 H   0  0  0  0  0  0  0  0  0  0  0  0
   -1.4606    2.0867    1.3945 H   0  0  0  0  0  0  0  0  0  0  0  0
   -0.2182   -0.8917   -0.8057 H   0  0  0  0  0  0  0  0  0  0  0  0
   -1.0648   -2.0785    0.1677 H   0  0  0  0  0  0  0  0  0  0  0  0
   -1.1797    2.6518   -0.8309 H   0  0  0  0  0  0  0  0  0  0  0  0
   -0.1888    1.2828   -1.2328 H   0  0  0  0  0  0  0  0  0  0  0  0
    0.2630   -1.7426    2.1009 H   0  0  0  0  0  0  0  0  0  0  0  0
    1.1950   -0.4782    1.3473 H   0  0  0  0  0  0  0  0  0  0  0  0
    0.6626    3.7640    0.3343 H   0  0  0  0  0  0  0  0  0  0  0  0
    1.0917    3.3641   -1.3220 H   0  0  0  0  0  0  0  0  0  0  0  0
    1.0503   -3.3763    0.4291 H   0  0  0  0  0  0  0  0  0  0  0  0
    2.3447   -2.6992    1.3981 H   0  0  0  0  0  0  0  0  0  0  0  0
    2.0359    1.9514    1.2132 H   0  0  0  0  0  0  0  0  0  0  0  0
    2.9887    2.9631    0.1559 H   0  0  0  0  0  0  0  0  0  0  0  0
    1.7334   -1.6722   -1.4292 H   0  0  0  0  0  0  0  0  0  0  0  0
    2.7030   -3.0801   -1.1213 H   0  0  0  0  0  0  0  0  0  0  0  0
   -2.7324   -2.0251   -0.7895 H   0  0  0  0  0  0  0  0  0  0  0  0
   -3.6846   -1.6999    0.6758 H   0  0  0  0  0  0  0  0  0  0  0  0
   -3.3442    2.1280    0.3531 H   0  0  0  0  0  0  0  0  0  0  0  0
   -3.9386    0.8912    1.4807 H   0  0  0  0  0  0  0  0  0  0  0  0
   -4.6668    1.0889   -0.1159 H   0  0  0  0  0  0  0  0  0  0  0  0
    3.0410    1.3490   -1.6074 H   0  0  0  0  0  0  0  0  0  0  0  0
    1.6995    0.4460   -0.9486 H   0  0  0  0  0  0  0  0  0  0  0  0
    4.1405   -1.1954   -1.5107 H   0  0  0  0  0  0  0  0  0  0  0  0
    4.3875   -1.8666    0.0894 H   0  0  0  0  0  0  0  0  0  0  0  0
    4.5390    0.5776    0.1033 H   0  0  0  0  0  0  0  0  0  0  0  0
    3.2564    0.0073    1.1407 H   0  0  0  0  0  0  0  0  0  0  0  0
   -4.2323   -0.8706   -1.9917 H   0  0  0  0  0  0  0  0  0  0  0  0
  1 12  1  0  0  0  0
  1 46  1  0  0  0  0
  2  3  1  0  0  0  0
  2  4  1  0  0  0  0
  2  5  1  0  0  0  0
  2 17  1  0  0  0  0
  3 12  1  0  0  0  0
  3 13  1  0  0  0  0
  3 18  1  0  0  0  0
  4  6  1  0  0  0  0
  4 19  1  0  0  0  0
  4 20  1  0  0  0  0
  5  7  1  0  0  0  0
  5 21  1  0  0  0  0
  5 22  1  0  0  0  0
  6  8  1  0  0  0  0
  6 23  1  0  0  0  0
  6 24  1  0  0  0  0
  7  9  1  0  0  0  0
  7 25  1  0  0  0  0
  7 26  1  0  0  0  0
  8 10  1  0  0  0  0
  8 27  1  0  0  0  0
  8 28  1  0  0  0  0
  9 11  1  0  0  0  0
  9 29  1  0  0  0  0
  9 30  1  0  0  0  0
 10 14  1  0  0  0  0
 10 31  1  0  0  0  0
 10 32  1  0  0  0  0
 11 15  1  0  0  0  0
 11 33  1  0  0  0  0
 11 34  1  0  0  0  0
 12 35  1  0  0  0  0
 12 36  1  0  0  0  0
 13 37  1  0  0  0  0
 13 38  1  0  0  0  0
 13 39  1  0  0  0  0
 14 16  1  0  0  0  0
 14 40  1  0  0  0  0
 14 41  1  0  0  0  0
 15 16  1  0  0  0  0
 15 42  1  0  0  0  0
 15 43  1  0  0  0  0
 16 44  1  0  0  0  0
 16 45  1  0  0  0  0
M  END
> <PUBCHEM_COMPOUND_CID>
9815980

> <PUBCHEM_CONFORMER_RMSD>
0.6

> <PUBCHEM_CONFORMER_DIVERSEORDER>
1
126
19
94
74
93
140
75
143
115
117
139
109
39
103
35
121
42
8
31
66
72
83
97
26
96
134
58
87
47
80
145
2
55
102
114
79
105
99
128
124
108
132
16
49
92
127
15
76
64
119
106
41
131
125
95
129
107
84
71
144
14
54
36
40
30
136
101
85
135
24
61
81
130
50
70
27
112
21
82
53
122
20
88
133
28
100
142
111
43
78
29
91
44
138
86
45
4
77
32
51
137
123
104
57
59
73
69
56
90
48
118
5
113
37
7
13
141
67
33
110
60
65
9
63
23
89
6
18
116
68
98
10
120
11
12
52
38
22
62
25
46
17
34
3

> <PUBCHEM_MMFF94_PARTIAL_CHARGES>
3
1 -0.68
12 0.28
46 0.4

> <PUBCHEM_EFFECTIVE_ROTOR_COUNT>
4.4

> <PUBCHEM_PHARMACOPHORE_FEATURES>
3
1 1 acceptor
1 1 donor
1 13 hydrophobe

> <PUBCHEM_HEAVY_ATOM_COUNT>
16

> <PUBCHEM_ATOM_DEF_STEREO_COUNT>
0

> <PUBCHEM_ATOM_UDEF_STEREO_COUNT>
1

> <PUBCHEM_BOND_DEF_STEREO_COUNT>
0

> <PUBCHEM_BOND_UDEF_STEREO_COUNT>
0

> <PUBCHEM_ISOTOPIC_ATOM_COUNT>
0

> <PUBCHEM_COMPONENT_COUNT>
1

> <PUBCHEM_CACTVS_TAUTO_COUNT>
1

> <PUBCHEM_CONFORMER_ID>
0095C7AC00000001

> <PUBCHEM_MMFF94_ENERGY>
32.4865

> <PUBCHEM_FEATURE_SELFOVERLAP>
15.223

> <PUBCHEM_SHAPE_FINGERPRINT>
10062212 137 18202003239881424037
10756046 5 18411409606195341485
10989021 7 18265336101261860987
11244481 83 15409472510590725427
12400797 292 18413389860284788062
12596599 1 17916039970469503198
1420 336 17398676697096497098
14250199 8 18339092514032386730
14251711 518 17612601020796808098
14251717 144 18409444829680607718
14251745 187 18410015425234991872
15196674 1 18410858750500449900
15536298 74 18343584044648739696
17492 54 18189062039525211084
18186145 218 17894912927614234163
18785283 64 17825417268910685665
20606313 2 18408886256694616718
20645477 70 18263357161074009261
20905425 154 18194401096159350788
23402539 116 18340482262581673478
23557571 272 17840573813387470514
23559900 14 17981321506216361192
23596394 208 18115849924103249855
23598291 2 18343023255549008905
2748010 2 17975148839579330152
3323516 105 18262798583407948735
57483677 104 18268710691552686624
6443956 14 18408887334383677405
7364860 26 18342173418395815601
7832392 63 18268154149548162945

> <PUBCHEM_SHAPE_MULTIPOLES>
323.4
6.82
3.15
0.97
3.69
0.99
-0.04
-2.28
1.72
-1.63
0.15
0.17
-0.2
-0.51

> <PUBCHEM_SHAPE_SELFOVERLAP>
607.633

> <PUBCHEM_SHAPE_VOLUME>
199.7

> <PUBCHEM_COORDINATE_TYPE>
2
5
10

$$$$
