9815474
  -OEChem-11232108433D

 29 28  0     1  0  0  0  0  0999 V2000
   -0.7153   -1.3133    0.1136 O   0  0  0  0  0  0  0  0  0  0  0  0
    2.4365    0.2218    0.2917 O   0  0  0  0  0  0  0  0  0  0  0  0
   -0.8092    0.9105    0.7211 O   0  0  0  0  0  0  0  0  0  0  0  0
    1.0561    0.0166   -1.5444 O   0  0  0  0  0  0  0  0  0  0  0  0
    0.6798   -1.3428    0.4324 C   0  0  1  0  0  0  0  0  0  0  0  0
   -2.7943   -0.2498   -0.0718 C   0  0  0  0  0  0  0  0  0  0  0  0
   -3.5659    1.0499    0.1430 C   0  0  0  0  0  0  0  0  0  0  0  0
   -1.3374   -0.1125    0.3076 C   0  0  0  0  0  0  0  0  0  0  0  0
    1.1993   -2.7414    0.1483 C   0  0  0  0  0  0  0  0  0  0  0  0
    1.3923   -0.3061   -0.4124 C   0  0  0  0  0  0  0  0  0  0  0  0
   -5.0212    0.9093   -0.2722 C   0  0  0  0  0  0  0  0  0  0  0  0
    3.1829    1.2401   -0.3822 C   0  0  0  0  0  0  0  0  0  0  0  0
    4.2964    1.7177    0.5255 C   0  0  0  0  0  0  0  0  0  0  0  0
    0.7943   -1.1096    1.4979 H   0  0  0  0  0  0  0  0  0  0  0  0
   -3.2345   -1.0456    0.5394 H   0  0  0  0  0  0  0  0  0  0  0  0
   -2.8444   -0.5404   -1.1272 H   0  0  0  0  0  0  0  0  0  0  0  0
   -3.5157    1.3441    1.1982 H   0  0  0  0  0  0  0  0  0  0  0  0
   -3.1032    1.8599   -0.4335 H   0  0  0  0  0  0  0  0  0  0  0  0
    2.2663   -2.8222    0.3782 H   0  0  0  0  0  0  0  0  0  0  0  0
    0.6522   -3.4832    0.7394 H   0  0  0  0  0  0  0  0  0  0  0  0
    1.0571   -3.0055   -0.9057 H   0  0  0  0  0  0  0  0  0  0  0  0
   -5.5548    1.8508   -0.1088 H   0  0  0  0  0  0  0  0  0  0  0  0
   -5.1034    0.6519   -1.3331 H   0  0  0  0  0  0  0  0  0  0  0  0
   -5.5218    0.1296    0.3108 H   0  0  0  0  0  0  0  0  0  0  0  0
    3.6077    0.8308   -1.3056 H   0  0  0  0  0  0  0  0  0  0  0  0
    2.5196    2.0773   -0.6267 H   0  0  0  0  0  0  0  0  0  0  0  0
    4.8885    2.4987    0.0404 H   0  0  0  0  0  0  0  0  0  0  0  0
    3.8877    2.1134    1.4612 H   0  0  0  0  0  0  0  0  0  0  0  0
    4.9578    0.8874    0.7936 H   0  0  0  0  0  0  0  0  0  0  0  0
  1  5  1  0  0  0  0
  1  8  1  0  0  0  0
  2 10  1  0  0  0  0
  2 12  1  0  0  0  0
  3  8  2  0  0  0  0
  4 10  2  0  0  0  0
  5  9  1  0  0  0  0
  5 10  1  0  0  0  0
  5 14  1  0  0  0  0
  6  7  1  0  0  0  0
  6  8  1  0  0  0  0
  6 15  1  0  0  0  0
  6 16  1  0  0  0  0
  7 11  1  0  0  0  0
  7 17  1  0  0  0  0
  7 18  1  0  0  0  0
  9 19  1  0  0  0  0
  9 20  1  0  0  0  0
  9 21  1  0  0  0  0
 11 22  1  0  0  0  0
 11 23  1  0  0  0  0
 11 24  1  0  0  0  0
 12 13  1  0  0  0  0
 12 25  1  0  0  0  0
 12 26  1  0  0  0  0
 13 27  1  0  0  0  0
 13 28  1  0  0  0  0
 13 29  1  0  0  0  0
M  END
> <PUBCHEM_COMPOUND_CID>
9815474

> <PUBCHEM_CONFORMER_RMSD>
0.8

> <PUBCHEM_CONFORMER_DIVERSEORDER>
1
165
232
128
95
114
78
169
53
13
107
59
153
43
228
216
155
3
171
82
36
80
152
159
101
233
71
70
98
34
69
48
226
212
227
12
102
20
211
18
164
41
185
117
163
203
66
72
37
135
58
14
172
204
88
120
109
225
2
8
220
7
231
215
51
126
191
137
173
176
234
84
81
116
74
174
33
65
24
229
157
125
110
118
49
208
150
132
15
121
146
89
161
111
10
222
175
29
40
190
187
55
186
206
90
79
209
218
182
141
193
197
113
167
224
86
124
127
202
230
45
154
42
21
38
170
75
168
149
28
207
139
108
184
148
11
57
44
26
179
50
147
195
104
22
136
64
177
77
99
180
145
52
103
68
201
91
205
143
213
106
221
54
19
35
46
200
130
16
217
30
140
105
134
67
119
60
178
76
162
196
122
5
25
97
194
133
166
85
62
144
142
32
31
87
47
112
160
9
183
189
17
223
156
56
151
23
63
4
192
131
93
39
100
73
210
115
181
199
198
214
27
158
236
92
219
96
138
188
129
6
61
123
94
83
235

> <PUBCHEM_MMFF94_PARTIAL_CHARGES>
9
1 -0.43
10 0.66
12 0.28
2 -0.43
3 -0.57
4 -0.57
5 0.34
6 0.06
8 0.66

> <PUBCHEM_EFFECTIVE_ROTOR_COUNT>
7

> <PUBCHEM_PHARMACOPHORE_FEATURES>
3
1 11 hydrophobe
1 3 acceptor
1 4 acceptor

> <PUBCHEM_HEAVY_ATOM_COUNT>
13

> <PUBCHEM_ATOM_DEF_STEREO_COUNT>
0

> <PUBCHEM_ATOM_UDEF_STEREO_COUNT>
1

> <PUBCHEM_BOND_DEF_STEREO_COUNT>
0

> <PUBCHEM_BOND_UDEF_STEREO_COUNT>
0

> <PUBCHEM_ISOTOPIC_ATOM_COUNT>
0

> <PUBCHEM_COMPONENT_COUNT>
1

> <PUBCHEM_CACTVS_TAUTO_COUNT>
1

> <PUBCHEM_CONFORMER_ID>
0095C5B200000001

> <PUBCHEM_MMFF94_ENERGY>
9.7624

> <PUBCHEM_FEATURE_SELFOVERLAP>
15.224

> <PUBCHEM_SHAPE_FINGERPRINT>
11543360 7 15913326931012943809
122479 349 18268991075971986552
12616999 72 16702299027627714693
14123255 52 18410854386407618736
14897335 6 18409448085508605979
15061688 2 18409447015855962512
15775835 57 18410856576856692477
170605 34 18272937106791285478
17834072 32 18264776643455247364
18186145 218 18270700712956725604
20231682 184 18202566185070639804
20645477 70 18200032833461592391
20820808 20 18412825772243843155
20871999 31 17060047207825217269
212916 134 18269818961067334856
21499 59 18410570708270797975
21524375 3 18336263530712071218
23402539 116 18200868578093851484
23532345 1 18336549326726607601
305870 269 18335421274825027634
328317 168 18412260666338437557
42 15 12468355747998152341
449060 50 18334580127339791449
449060 62 18342739594033265001
7364860 26 18268431239558741846
81539 233 18334857203600123534
94968 8 11024106546930982412

> <PUBCHEM_SHAPE_MULTIPOLES>
244.06
7.82
2.08
0.85
4.92
1.29
-0.19
-6.2
0.09
-1.65
0.25
-0.26
-0.07
0.16

> <PUBCHEM_SHAPE_SELFOVERLAP>
461.036

> <PUBCHEM_SHAPE_VOLUME>
151.5

> <PUBCHEM_COORDINATE_TYPE>
2
5
10

$$$$
