98330
  -OEChem-11232108483D

 16 16  0     1  0  0  0  0  0999 V2000
    0.4860   -1.5903   -0.5432 S   0  0  0  0  0  0  0  0  0  0  0  0
   -0.4899    1.6003    0.5157 S   0  0  0  0  0  0  0  0  0  0  0  0
    2.2475    0.0269    0.7102 O   0  0  0  0  0  0  0  0  0  0  0  0
   -2.2783   -0.0374   -0.6823 O   0  0  0  0  0  0  0  0  0  0  0  0
    1.5154   -0.0942   -0.5049 C   0  0  2  0  0  0  0  0  0  0  0  0
   -1.5043    0.0914    0.5066 C   0  0  1  0  0  0  0  0  0  0  0  0
   -0.7037   -1.1801    0.7723 C   0  0  0  0  0  0  0  0  0  0  0  0
    0.7274    1.1834   -0.7742 C   0  0  0  0  0  0  0  0  0  0  0  0
    2.2548   -0.2182   -1.3034 H   0  0  0  0  0  0  0  0  0  0  0  0
   -2.2228    0.2078    1.3253 H   0  0  0  0  0  0  0  0  0  0  0  0
   -0.1775   -1.1290    1.7317 H   0  0  0  0  0  0  0  0  0  0  0  0
   -1.3933   -2.0297    0.8273 H   0  0  0  0  0  0  0  0  0  0  0  0
    1.4200    2.0314   -0.8171 H   0  0  0  0  0  0  0  0  0  0  0  0
    0.2170    1.1384   -1.7426 H   0  0  0  0  0  0  0  0  0  0  0  0
    2.8100    0.8167    0.6380 H   0  0  0  0  0  0  0  0  0  0  0  0
   -2.6613    0.8381   -0.8607 H   0  0  0  0  0  0  0  0  0  0  0  0
  1  5  1  0  0  0  0
  1  7  1  0  0  0  0
  2  6  1  0  0  0  0
  2  8  1  0  0  0  0
  3  5  1  0  0  0  0
  3 15  1  0  0  0  0
  4  6  1  0  0  0  0
  4 16  1  0  0  0  0
  5  8  1  0  0  0  0
  5  9  1  0  0  0  0
  6  7  1  0  0  0  0
  6 10  1  0  0  0  0
  7 11  1  0  0  0  0
  7 12  1  0  0  0  0
  8 13  1  0  0  0  0
  8 14  1  0  0  0  0
M  END
> <PUBCHEM_COMPOUND_CID>
98330

> <PUBCHEM_CONFORMER_RMSD>
0.4

> <PUBCHEM_CONFORMER_DIVERSEORDER>
1
8
11
6
4
12
9
10
5
7
2
3

> <PUBCHEM_MMFF94_PARTIAL_CHARGES>
10
1 -0.46
15 0.4
16 0.4
2 -0.46
3 -0.68
4 -0.68
5 0.51
6 0.51
7 0.23
8 0.23

> <PUBCHEM_EFFECTIVE_ROTOR_COUNT>
1.2

> <PUBCHEM_PHARMACOPHORE_FEATURES>
5
1 3 acceptor
1 3 donor
1 4 acceptor
1 4 donor
6 1 2 5 6 7 8 rings

> <PUBCHEM_HEAVY_ATOM_COUNT>
8

> <PUBCHEM_ATOM_DEF_STEREO_COUNT>
0

> <PUBCHEM_ATOM_UDEF_STEREO_COUNT>
2

> <PUBCHEM_BOND_DEF_STEREO_COUNT>
0

> <PUBCHEM_BOND_UDEF_STEREO_COUNT>
0

> <PUBCHEM_ISOTOPIC_ATOM_COUNT>
0

> <PUBCHEM_COMPONENT_COUNT>
1

> <PUBCHEM_CACTVS_TAUTO_COUNT>
1

> <PUBCHEM_CONFORMER_ID>
0001801A00000001

> <PUBCHEM_MMFF94_ENERGY>
8.4103

> <PUBCHEM_FEATURE_SELFOVERLAP>
25.371

> <PUBCHEM_SHAPE_FINGERPRINT>
15310529 11 16298963055090637460
18185500 45 18343308037228596447
21040471 1 18266194867066662560
21922407 69 16200160832839397803
23235685 24 18265073403834773365
241688 4 17759536468760901760
24536 1 18263949694366428995
29004967 10 18342747320647619523
5084963 1 18337678503260856790

> <PUBCHEM_SHAPE_MULTIPOLES>
160.6
2.36
1.75
1
0.03
0.01
0
0
0
0
0.01
-0.01
0
0

> <PUBCHEM_SHAPE_SELFOVERLAP>
281.726

> <PUBCHEM_SHAPE_VOLUME>
105.4

> <PUBCHEM_COORDINATE_TYPE>
2
5
10

$$$$
