9837013
  -OEChem-11232108443D

 34 34  0     1  0  0  0  0  0999 V2000
    0.8130    0.8313    1.3354 O   0  0  0  0  0  0  0  0  0  0  0  0
   -1.4650    0.9790   -0.3965 C   0  0  0  0  0  0  0  0  0  0  0  0
   -0.2670    0.0137   -0.6244 C   0  0  2  0  0  0  0  0  0  0  0  0
   -2.1446    0.7127    0.9717 C   0  0  0  0  0  0  0  0  0  0  0  0
   -2.5044   -0.7589    1.1940 C   0  0  0  0  0  0  0  0  0  0  0  0
   -0.6184   -1.4264   -0.3192 C   0  0  0  0  0  0  0  0  0  0  0  0
   -1.3025   -1.6809    1.0007 C   0  0  0  0  0  0  0  0  0  0  0  0
   -2.4962    0.7836   -1.5344 C   0  0  0  0  0  0  0  0  0  0  0  0
   -1.0069    2.4513   -0.4510 C   0  0  0  0  0  0  0  0  0  0  0  0
    0.9371    0.3287    0.2207 C   0  0  0  0  0  0  0  0  0  0  0  0
   -0.3645   -2.4196   -1.1855 C   0  0  0  0  0  0  0  0  0  0  0  0
    2.2695   -0.0026   -0.3551 C   0  0  0  0  0  0  0  0  0  0  0  0
    3.3917    0.2470    0.3320 C   0  0  0  0  0  0  0  0  0  0  0  0
    4.7581   -0.0587   -0.1883 C   0  0  0  0  0  0  0  0  0  0  0  0
    0.0400    0.1171   -1.6752 H   0  0  0  0  0  0  0  0  0  0  0  0
   -3.0624    1.3106    1.0501 H   0  0  0  0  0  0  0  0  0  0  0  0
   -1.5109    1.0485    1.7998 H   0  0  0  0  0  0  0  0  0  0  0  0
   -3.3109   -1.0538    0.5120 H   0  0  0  0  0  0  0  0  0  0  0  0
   -2.8993   -0.8852    2.2090 H   0  0  0  0  0  0  0  0  0  0  0  0
   -1.6368   -2.7223    1.0810 H   0  0  0  0  0  0  0  0  0  0  0  0
   -0.5848   -1.5235    1.8149 H   0  0  0  0  0  0  0  0  0  0  0  0
   -2.8551   -0.2480   -1.6012 H   0  0  0  0  0  0  0  0  0  0  0  0
   -3.3712    1.4274   -1.3886 H   0  0  0  0  0  0  0  0  0  0  0  0
   -2.0586    1.0388   -2.5067 H   0  0  0  0  0  0  0  0  0  0  0  0
   -0.3780    2.7355    0.3973 H   0  0  0  0  0  0  0  0  0  0  0  0
   -0.4451    2.6544   -1.3698 H   0  0  0  0  0  0  0  0  0  0  0  0
   -1.8704    3.1271   -0.4377 H   0  0  0  0  0  0  0  0  0  0  0  0
    0.1170   -2.2274   -2.1384 H   0  0  0  0  0  0  0  0  0  0  0  0
   -0.6312   -3.4467   -0.9607 H   0  0  0  0  0  0  0  0  0  0  0  0
    2.3016   -0.4477   -1.3434 H   0  0  0  0  0  0  0  0  0  0  0  0
    3.3475    0.6942    1.3213 H   0  0  0  0  0  0  0  0  0  0  0  0
    4.7319   -0.5063   -1.1869 H   0  0  0  0  0  0  0  0  0  0  0  0
    5.2654   -0.7563    0.4850 H   0  0  0  0  0  0  0  0  0  0  0  0
    5.3503    0.8600   -0.2418 H   0  0  0  0  0  0  0  0  0  0  0  0
  1 10  2  0  0  0  0
  2  3  1  0  0  0  0
  2  4  1  0  0  0  0
  2  8  1  0  0  0  0
  2  9  1  0  0  0  0
  3  6  1  0  0  0  0
  3 10  1  0  0  0  0
  3 15  1  0  0  0  0
  4  5  1  0  0  0  0
  4 16  1  0  0  0  0
  4 17  1  0  0  0  0
  5  7  1  0  0  0  0
  5 18  1  0  0  0  0
  5 19  1  0  0  0  0
  6  7  1  0  0  0  0
  6 11  2  0  0  0  0
  7 20  1  0  0  0  0
  7 21  1  0  0  0  0
  8 22  1  0  0  0  0
  8 23  1  0  0  0  0
  8 24  1  0  0  0  0
  9 25  1  0  0  0  0
  9 26  1  0  0  0  0
  9 27  1  0  0  0  0
 10 12  1  0  0  0  0
 11 28  1  0  0  0  0
 11 29  1  0  0  0  0
 12 13  2  0  0  0  0
 12 30  1  0  0  0  0
 13 14  1  0  0  0  0
 13 31  1  0  0  0  0
 14 32  1  0  0  0  0
 14 33  1  0  0  0  0
 14 34  1  0  0  0  0
M  END
> <PUBCHEM_COMPOUND_CID>
9837013

> <PUBCHEM_CONFORMER_RMSD>
0.6

> <PUBCHEM_CONFORMER_DIVERSEORDER>
5
16
27
19
21
23
26
3
18
28
20
4
12
1
9
11
2
25
15
24
8
22
10
7
6
14
13
17

> <PUBCHEM_MMFF94_PARTIAL_CHARGES>
13
1 -0.57
10 0.49
11 -0.3
12 -0.14
13 -0.29
14 0.14
28 0.15
29 0.15
3 0.2
30 0.15
31 0.15
6 -0.28
7 0.14

> <PUBCHEM_EFFECTIVE_ROTOR_COUNT>
3

> <PUBCHEM_PHARMACOPHORE_FEATURES>
4
1 1 acceptor
1 14 hydrophobe
3 2 8 9 hydrophobe
6 2 3 4 5 6 7 rings

> <PUBCHEM_HEAVY_ATOM_COUNT>
14

> <PUBCHEM_ATOM_DEF_STEREO_COUNT>
0

> <PUBCHEM_ATOM_UDEF_STEREO_COUNT>
1

> <PUBCHEM_BOND_DEF_STEREO_COUNT>
1

> <PUBCHEM_BOND_UDEF_STEREO_COUNT>
0

> <PUBCHEM_ISOTOPIC_ATOM_COUNT>
0

> <PUBCHEM_COMPONENT_COUNT>
1

> <PUBCHEM_CACTVS_TAUTO_COUNT>
13

> <PUBCHEM_CONFORMER_ID>
009619D500000005

> <PUBCHEM_MMFF94_ENERGY>
28.3661

> <PUBCHEM_FEATURE_SELFOVERLAP>
20.297

> <PUBCHEM_SHAPE_FINGERPRINT>
12138202 97 17895463744374643783
12186901 62 18040724640677868222
12423570 1 9483906784982248497
12491281 212 14620527691813937658
12932764 1 18410005577038395376
13024252 1 16515400789647594643
14577589 140 18411140238399161142
14817 1 13720308744436953435
15309172 13 18272375260665681522
15775835 57 18059568032099663933
16945 1 18114758056820720041
20645464 45 17846227660922186886
20645476 183 17531235137079309120
20871998 184 18410580603701472095
21524375 3 17974833000205683580
23402539 116 18335412448698798717
23419403 2 16554777728633522155
23559900 14 18411973656013708056
2748010 2 18411704296063553493
3250762 1 17905057949768574715
369184 2 13039191419929754266
4175511 318 17894627032968372828
5706482 22 18336536110600424410
81228 2 17982998239989304286

> <PUBCHEM_SHAPE_MULTIPOLES>
282.24
5.22
2.07
1.31
8.36
0.3
0.03
-0.58
-0.26
-1.31
0.48
-0.83
0.17
0.53

> <PUBCHEM_SHAPE_SELFOVERLAP>
564.95

> <PUBCHEM_SHAPE_VOLUME>
165.7

> <PUBCHEM_COORDINATE_TYPE>
2
5
10

$$$$
