98478
  -OEChem-11232109073D

 30 32  0     1  0  0  0  0  0999 V2000
   -1.7791    0.6367    0.3663 O   0  0  0  0  0  0  0  0  0  0  0  0
   -3.4829   -0.7705   -0.3079 O   0  0  0  0  0  0  0  0  0  0  0  0
    0.8525   -1.4504   -0.4543 C   0  0  1  0  0  0  0  0  0  0  0  0
    0.4160   -0.0709    1.2417 C   0  0  2  0  0  0  0  0  0  0  0  0
    1.3881   -0.0917   -0.9738 C   0  0  1  0  0  0  0  0  0  0  0  0
    1.0986    0.8620    0.2143 C   0  0  2  0  0  0  0  0  0  0  0  0
    1.1591   -1.3979    1.0459 C   0  0  0  0  0  0  0  0  0  0  0  0
   -0.9920   -0.4737    0.7492 C   0  0  2  0  0  0  0  0  0  0  0  0
   -0.6911   -1.3887   -0.4529 C   0  0  0  0  0  0  0  0  0  0  0  0
    2.9047   -0.0503   -1.2151 C   0  0  0  0  0  0  0  0  0  0  0  0
    2.4517    1.3565    0.6153 C   0  0  0  0  0  0  0  0  0  0  0  0
    3.4218    0.8738   -0.1646 C   0  0  0  0  0  0  0  0  0  0  0  0
   -3.0151    0.3495   -0.1527 C   0  0  0  0  0  0  0  0  0  0  0  0
   -3.7323    1.6155   -0.5113 C   0  0  0  0  0  0  0  0  0  0  0  0
    1.2493   -2.3187   -0.9847 H   0  0  0  0  0  0  0  0  0  0  0  0
    0.4207    0.3230    2.2610 H   0  0  0  0  0  0  0  0  0  0  0  0
    0.8564    0.2146   -1.8828 H   0  0  0  0  0  0  0  0  0  0  0  0
    0.4665    1.7061   -0.0797 H   0  0  0  0  0  0  0  0  0  0  0  0
    0.7126   -2.2283    1.6042 H   0  0  0  0  0  0  0  0  0  0  0  0
    2.2267   -1.3520    1.2777 H   0  0  0  0  0  0  0  0  0  0  0  0
   -1.5122   -1.0328    1.5384 H   0  0  0  0  0  0  0  0  0  0  0  0
   -1.0792   -1.0281   -1.4107 H   0  0  0  0  0  0  0  0  0  0  0  0
   -1.0994   -2.3894   -0.2686 H   0  0  0  0  0  0  0  0  0  0  0  0
    3.1253    0.3564   -2.2079 H   0  0  0  0  0  0  0  0  0  0  0  0
    3.3682   -1.0386   -1.1381 H   0  0  0  0  0  0  0  0  0  0  0  0
    2.6188    2.0382    1.4371 H   0  0  0  0  0  0  0  0  0  0  0  0
    4.4684    1.1152   -0.0468 H   0  0  0  0  0  0  0  0  0  0  0  0
   -3.1598    2.1642   -1.2633 H   0  0  0  0  0  0  0  0  0  0  0  0
   -3.8762    2.2254    0.3840 H   0  0  0  0  0  0  0  0  0  0  0  0
   -4.7131    1.3715   -0.9292 H   0  0  0  0  0  0  0  0  0  0  0  0
  1  8  1  0  0  0  0
  1 13  1  0  0  0  0
  2 13  2  0  0  0  0
  3  5  1  0  0  0  0
  3  7  1  0  0  0  0
  3  9  1  0  0  0  0
  3 15  1  0  0  0  0
  4  6  1  0  0  0  0
  4  7  1  0  0  0  0
  4  8  1  0  0  0  0
  4 16  1  0  0  0  0
  5  6  1  0  0  0  0
  5 10  1  0  0  0  0
  5 17  1  0  0  0  0
  6 11  1  0  0  0  0
  6 18  1  0  0  0  0
  7 19  1  0  0  0  0
  7 20  1  0  0  0  0
  8  9  1  0  0  0  0
  8 21  1  0  0  0  0
  9 22  1  0  0  0  0
  9 23  1  0  0  0  0
 10 12  1  0  0  0  0
 10 24  1  0  0  0  0
 10 25  1  0  0  0  0
 11 12  2  0  0  0  0
 11 26  1  0  0  0  0
 12 27  1  0  0  0  0
 13 14  1  0  0  0  0
 14 28  1  0  0  0  0
 14 29  1  0  0  0  0
 14 30  1  0  0  0  0
M  END
> <PUBCHEM_COMPOUND_CID>
98478

> <PUBCHEM_CONFORMER_RMSD>
0.6

> <PUBCHEM_CONFORMER_DIVERSEORDER>
1
3
17
6
12
8
10
7
14
9
13
4
5
2
16
11
15

> <PUBCHEM_MMFF94_PARTIAL_CHARGES>
11
1 -0.43
10 0.14
11 -0.29
12 -0.29
13 0.66
14 0.06
2 -0.57
26 0.15
27 0.15
6 0.14
8 0.28

> <PUBCHEM_EFFECTIVE_ROTOR_COUNT>
2.8

> <PUBCHEM_PHARMACOPHORE_FEATURES>
3
1 2 acceptor
5 5 6 10 11 12 rings
7 3 4 5 6 7 8 9 rings

> <PUBCHEM_HEAVY_ATOM_COUNT>
14

> <PUBCHEM_ATOM_DEF_STEREO_COUNT>
0

> <PUBCHEM_ATOM_UDEF_STEREO_COUNT>
5

> <PUBCHEM_BOND_DEF_STEREO_COUNT>
0

> <PUBCHEM_BOND_UDEF_STEREO_COUNT>
0

> <PUBCHEM_ISOTOPIC_ATOM_COUNT>
0

> <PUBCHEM_COMPONENT_COUNT>
1

> <PUBCHEM_CACTVS_TAUTO_COUNT>
1

> <PUBCHEM_CONFORMER_ID>
000180AE00000001

> <PUBCHEM_MMFF94_ENERGY>
44.9475

> <PUBCHEM_FEATURE_SELFOVERLAP>
15.305

> <PUBCHEM_SHAPE_FINGERPRINT>
10219947 1 13840260407491936098
10498660 4 18336820910489100973
11471102 22 11963389656621416676
11715629 250 18335416833992412997
11769659 78 13973139600734743060
12138202 97 18129950121057143350
12251169 10 12685100301685382385
12382932 28 10881399850503919341
12423570 1 15477936664727522930
12654215 9 18340484465562000356
12897270 3 18202004313354365521
12932764 1 18409732837819449299
13464514 151 18264497173953418040
13571099 52 18334295396329412600
13705890 14 17275389823883605396
14128692 85 11671782693071671866
14943859 89 18187086199850040272
15375462 189 12679469681064478765
15775835 57 18333731295314401397
16945 1 17845392032185290874
18186145 218 18059586779536893760
200 152 15554181315324552612
20281407 28 11455899048203831317
20361792 2 13758356665552917345
20653085 51 18265062494902704120
21524375 3 18260264187277472250
230 275 17458348502800193469
231179 274 18113613448205466157
232386 152 9367340461893473049
23402539 116 18201428195057796444
23402655 69 17989490701579822413
23419403 2 10351507625269151574
23559900 14 17632018641679121904
25 1 18342748381341050217
2748010 2 17771919486951945002
276578 36 17748547021945454664
305870 269 18040991821724037818
3060560 45 18201995499986535645
353137 74 17989214728287205281
528886 8 18060138769071294878
5902787 121 11239994542558450244
7364860 26 18264483979766652466
83771 10 9655585101615789284

> <PUBCHEM_SHAPE_MULTIPOLES>
276.37
5.58
1.57
1.12
3.8
0.06
0.05
-2.62
-1.34
0.16
0.02
-0.48
0.12
0.22

> <PUBCHEM_SHAPE_SELFOVERLAP>
601.215

> <PUBCHEM_SHAPE_VOLUME>
156.4

> <PUBCHEM_COORDINATE_TYPE>
2
5
10

$$$$
