98492
  -OEChem-11232108483D

 33 33  0     0  0  0  0  0  0999 V2000
   -1.1139   -0.0259    0.5618 O   0  0  0  0  0  0  0  0  0  0  0  0
    0.3397   -0.0662   -1.2287 O   0  0  0  0  0  0  0  0  0  0  0  0
   -4.7429   -0.0237   -0.4111 C   0  0  0  0  0  0  0  0  0  0  0  0
   -3.5072   -0.0228    0.4861 C   0  0  0  0  0  0  0  0  0  0  0  0
   -6.0286    0.0387    0.4131 C   0  0  0  0  0  0  0  0  0  0  0  0
   -2.2214   -0.0424   -0.3280 C   0  0  0  0  0  0  0  0  0  0  0  0
   -7.2603    0.0722   -0.4776 C   0  0  0  0  0  0  0  0  0  0  0  0
    1.1839   -0.0214    1.0529 C   0  0  0  0  0  0  0  0  0  0  0  0
    2.5854    0.0013    0.5001 C   0  0  0  0  0  0  0  0  0  0  0  0
    0.1256   -0.0405   -0.0242 C   0  0  0  0  0  0  0  0  0  0  0  0
    3.2399   -1.1963    0.2509 C   0  0  0  0  0  0  0  0  0  0  0  0
    3.1998    1.2195    0.2482 C   0  0  0  0  0  0  0  0  0  0  0  0
    4.5372   -1.1754   -0.2611 C   0  0  0  0  0  0  0  0  0  0  0  0
    4.4971    1.2402   -0.2640 C   0  0  0  0  0  0  0  0  0  0  0  0
    5.1657    0.0427   -0.5185 C   0  0  0  0  0  0  0  0  0  0  0  0
   -4.7467   -0.9273   -1.0327 H   0  0  0  0  0  0  0  0  0  0  0  0
   -4.7026    0.8360   -1.0911 H   0  0  0  0  0  0  0  0  0  0  0  0
   -3.5258   -0.8887    1.1596 H   0  0  0  0  0  0  0  0  0  0  0  0
   -3.5100    0.8617    1.1353 H   0  0  0  0  0  0  0  0  0  0  0  0
   -6.0872   -0.8311    1.0777 H   0  0  0  0  0  0  0  0  0  0  0  0
   -6.0215    0.9323    1.0480 H   0  0  0  0  0  0  0  0  0  0  0  0
   -2.1771    0.8374   -0.9807 H   0  0  0  0  0  0  0  0  0  0  0  0
   -2.1816   -0.9485   -0.9441 H   0  0  0  0  0  0  0  0  0  0  0  0
   -7.2482    0.9503   -1.1311 H   0  0  0  0  0  0  0  0  0  0  0  0
   -7.3148   -0.8230   -1.1052 H   0  0  0  0  0  0  0  0  0  0  0  0
   -8.1680    0.1154    0.1323 H   0  0  0  0  0  0  0  0  0  0  0  0
    1.0516   -0.9065    1.6868 H   0  0  0  0  0  0  0  0  0  0  0  0
    1.0240    0.8614    1.6838 H   0  0  0  0  0  0  0  0  0  0  0  0
    2.7582   -2.1503    0.4459 H   0  0  0  0  0  0  0  0  0  0  0  0
    2.6869    2.1574    0.4410 H   0  0  0  0  0  0  0  0  0  0  0  0
    5.0577   -2.1077   -0.4601 H   0  0  0  0  0  0  0  0  0  0  0  0
    4.9865    2.1888   -0.4652 H   0  0  0  0  0  0  0  0  0  0  0  0
    6.1757    0.0590   -0.9176 H   0  0  0  0  0  0  0  0  0  0  0  0
  1  6  1  0  0  0  0
  1 10  1  0  0  0  0
  2 10  2  0  0  0  0
  3  4  1  0  0  0  0
  3  5  1  0  0  0  0
  3 16  1  0  0  0  0
  3 17  1  0  0  0  0
  4  6  1  0  0  0  0
  4 18  1  0  0  0  0
  4 19  1  0  0  0  0
  5  7  1  0  0  0  0
  5 20  1  0  0  0  0
  5 21  1  0  0  0  0
  6 22  1  0  0  0  0
  6 23  1  0  0  0  0
  7 24  1  0  0  0  0
  7 25  1  0  0  0  0
  7 26  1  0  0  0  0
  8  9  1  0  0  0  0
  8 10  1  0  0  0  0
  8 27  1  0  0  0  0
  8 28  1  0  0  0  0
  9 11  2  0  0  0  0
  9 12  1  0  0  0  0
 11 13  1  0  0  0  0
 11 29  1  0  0  0  0
 12 14  2  0  0  0  0
 12 30  1  0  0  0  0
 13 15  2  0  0  0  0
 13 31  1  0  0  0  0
 14 15  1  0  0  0  0
 14 32  1  0  0  0  0
 15 33  1  0  0  0  0
M  END
> <PUBCHEM_COMPOUND_CID>
98492

> <PUBCHEM_CONFORMER_RMSD>
0.8

> <PUBCHEM_CONFORMER_DIVERSEORDER>
1
77
145
112
86
141
68
146
105
158
36
150
31
155
118
74
110
22
121
94
8
63
26
67
53
92
54
73
160
89
15
147
34
148
80
48
139
61
161
13
4
116
43
5
90
2
136
143
70
85
125
109
87
132
119
151
56
135
115
65
107
82
120
142
117
159
11
140
17
96
129
163
18
137
98
95
152
47
27
113
126
72
102
64
75
51
55
40
122
88
49
20
106
7
144
3
156
10
66
162
35
133
45
57
79
114
24
12
46
19
164
39
91
78
81
127
25
149
16
44
52
138
131
58
30
134
97
154
9
32
14
153
84
69
99
60
23
37
124
62
157
71
28
103
108
6
50
93
41
130
104
59
111
33
76
38
83
123
100
29
128
42
101
21

> <PUBCHEM_MMFF94_PARTIAL_CHARGES>
16
1 -0.43
10 0.66
11 -0.15
12 -0.15
13 -0.15
14 -0.15
15 -0.15
2 -0.57
29 0.15
30 0.15
31 0.15
32 0.15
33 0.15
6 0.28
8 0.2
9 -0.14

> <PUBCHEM_EFFECTIVE_ROTOR_COUNT>
7

> <PUBCHEM_PHARMACOPHORE_FEATURES>
3
1 2 acceptor
1 7 hydrophobe
6 9 11 12 13 14 15 rings

> <PUBCHEM_HEAVY_ATOM_COUNT>
15

> <PUBCHEM_ATOM_DEF_STEREO_COUNT>
0

> <PUBCHEM_ATOM_UDEF_STEREO_COUNT>
0

> <PUBCHEM_BOND_DEF_STEREO_COUNT>
0

> <PUBCHEM_BOND_UDEF_STEREO_COUNT>
0

> <PUBCHEM_ISOTOPIC_ATOM_COUNT>
0

> <PUBCHEM_COMPONENT_COUNT>
1

> <PUBCHEM_CACTVS_TAUTO_COUNT>
1

> <PUBCHEM_CONFORMER_ID>
000180BC00000001

> <PUBCHEM_MMFF94_ENERGY>
19.1608

> <PUBCHEM_FEATURE_SELFOVERLAP>
15.223

> <PUBCHEM_SHAPE_FINGERPRINT>
11287383 113 18113903787925824659
12730499 353 17967819340323457842
12815109 37 15213018254588346733
13533116 47 18341612572997897163
13836976 161 18201722851579282702
14123238 8 14273454777969886707
1420 363 17749112188545092859
14251718 22 17312824883663925419
14251764 46 17530963583635288299
15048467 5 18187083983357038084
17834072 33 18412543227904716927
17834076 25 16515402967264578961
20281389 69 18060700581349286001
20645477 70 18337954489612735234
220451 1 18060420222942674711
221357 26 18408602543797637644
23402539 116 17489583455498577773
23536379 177 18341895173719658819
23557571 272 16153986837815307095
29717793 49 17775573026530882524
300161 21 18341325677724557307
3014965 18 18338794511995537151
42788 4 18411136931427109665
4463277 17 16081087074274276447
465052 167 17632580461053935222
522135 26 18343864411972170402
5374978 207 11169910598015546870
542803 24 18342458136721583769
6025842 7 18409732846657803926

> <PUBCHEM_SHAPE_MULTIPOLES>
296.95
16.27
1.01
0.89
25.36
0.03
0
0.42
2.19
-1.56
0.01
0
-0.01
0.01

> <PUBCHEM_SHAPE_SELFOVERLAP>
590.553

> <PUBCHEM_SHAPE_VOLUME>
176

> <PUBCHEM_COORDINATE_TYPE>
2
5
10

$$$$
