9855795
  -OEChem-11232109483D

 39 40  0     1  0  0  0  0  0999 V2000
    0.7450   -0.3598    0.3689 C   0  0  2  0  0  0  0  0  0  0  0  0
    1.8317   -1.1683   -0.4383 C   0  0  1  0  0  0  0  0  0  0  0  0
   -0.6611   -0.7604   -0.1738 C   0  0  0  0  0  0  0  0  0  0  0  0
    0.9448    1.1500    0.1826 C   0  0  0  0  0  0  0  0  0  0  0  0
   -1.8145    0.1328    0.3176 C   0  0  1  0  0  0  0  0  0  0  0  0
   -0.1937    2.0507    0.6013 C   0  0  0  0  0  0  0  0  0  0  0  0
    3.2326   -0.5606   -0.2660 C   0  0  0  0  0  0  0  0  0  0  0  0
   -1.5209    1.6026   -0.0026 C   0  0  0  0  0  0  0  0  0  0  0  0
    0.8252   -0.6779    1.8810 C   0  0  0  0  0  0  0  0  0  0  0  0
    3.2671    0.8859   -0.7476 C   0  0  0  0  0  0  0  0  0  0  0  0
    2.0694    1.6789   -0.3320 C   0  0  0  0  0  0  0  0  0  0  0  0
    1.8824   -2.6673   -0.1180 C   0  0  0  0  0  0  0  0  0  0  0  0
   -3.1148   -0.2926   -0.2994 C   0  0  0  0  0  0  0  0  0  0  0  0
   -4.1819   -0.7454    0.6524 C   0  0  0  0  0  0  0  0  0  0  0  0
   -3.3114   -0.2687   -1.6261 C   0  0  0  0  0  0  0  0  0  0  0  0
    1.5859   -1.0897   -1.5080 H   0  0  0  0  0  0  0  0  0  0  0  0
   -0.8821   -1.8005    0.0998 H   0  0  0  0  0  0  0  0  0  0  0  0
   -0.6232   -0.7379   -1.2715 H   0  0  0  0  0  0  0  0  0  0  0  0
   -1.8933    0.0307    1.4075 H   0  0  0  0  0  0  0  0  0  0  0  0
   -0.2686    2.0541    1.6952 H   0  0  0  0  0  0  0  0  0  0  0  0
   -0.0078    3.0906    0.3057 H   0  0  0  0  0  0  0  0  0  0  0  0
    3.9733   -1.1393   -0.8317 H   0  0  0  0  0  0  0  0  0  0  0  0
    3.5429   -0.6083    0.7849 H   0  0  0  0  0  0  0  0  0  0  0  0
   -2.3243    2.2401    0.3880 H   0  0  0  0  0  0  0  0  0  0  0  0
   -1.4845    1.7736   -1.0864 H   0  0  0  0  0  0  0  0  0  0  0  0
    0.1255   -0.0787    2.4726 H   0  0  0  0  0  0  0  0  0  0  0  0
    0.5824   -1.7263    2.0842 H   0  0  0  0  0  0  0  0  0  0  0  0
    1.8248   -0.4813    2.2832 H   0  0  0  0  0  0  0  0  0  0  0  0
    3.3318    0.9093   -1.8421 H   0  0  0  0  0  0  0  0  0  0  0  0
    4.1740    1.3677   -0.3646 H   0  0  0  0  0  0  0  0  0  0  0  0
    2.1468    2.7558   -0.4602 H   0  0  0  0  0  0  0  0  0  0  0  0
    0.9044   -3.1405   -0.2403 H   0  0  0  0  0  0  0  0  0  0  0  0
    2.5748   -3.1765   -0.7980 H   0  0  0  0  0  0  0  0  0  0  0  0
    2.2341   -2.8546    0.9014 H   0  0  0  0  0  0  0  0  0  0  0  0
   -5.0997   -1.0402    0.1329 H   0  0  0  0  0  0  0  0  0  0  0  0
   -3.8347   -1.6084    1.2299 H   0  0  0  0  0  0  0  0  0  0  0  0
   -4.4376    0.0605    1.3482 H   0  0  0  0  0  0  0  0  0  0  0  0
   -4.2583   -0.5799   -2.0557 H   0  0  0  0  0  0  0  0  0  0  0  0
   -2.5465    0.0587   -2.3213 H   0  0  0  0  0  0  0  0  0  0  0  0
  1  2  1  0  0  0  0
  1  3  1  0  0  0  0
  1  4  1  0  0  0  0
  1  9  1  0  0  0  0
  2  7  1  0  0  0  0
  2 12  1  0  0  0  0
  2 16  1  0  0  0  0
  3  5  1  0  0  0  0
  3 17  1  0  0  0  0
  3 18  1  0  0  0  0
  4  6  1  0  0  0  0
  4 11  2  0  0  0  0
  5  8  1  0  0  0  0
  5 13  1  0  0  0  0
  5 19  1  0  0  0  0
  6  8  1  0  0  0  0
  6 20  1  0  0  0  0
  6 21  1  0  0  0  0
  7 10  1  0  0  0  0
  7 22  1  0  0  0  0
  7 23  1  0  0  0  0
  8 24  1  0  0  0  0
  8 25  1  0  0  0  0
  9 26  1  0  0  0  0
  9 27  1  0  0  0  0
  9 28  1  0  0  0  0
 10 11  1  0  0  0  0
 10 29  1  0  0  0  0
 10 30  1  0  0  0  0
 11 31  1  0  0  0  0
 12 32  1  0  0  0  0
 12 33  1  0  0  0  0
 12 34  1  0  0  0  0
 13 14  1  0  0  0  0
 13 15  2  0  0  0  0
 14 35  1  0  0  0  0
 14 36  1  0  0  0  0
 14 37  1  0  0  0  0
 15 38  1  0  0  0  0
 15 39  1  0  0  0  0
M  END
> <PUBCHEM_COMPOUND_CID>
9855795

> <PUBCHEM_CONFORMER_RMSD>
0.6

> <PUBCHEM_CONFORMER_DIVERSEORDER>
1
6
2
4
5
3

> <PUBCHEM_MMFF94_PARTIAL_CHARGES>
12
1 0.14
10 0.14
11 -0.29
13 -0.28
14 0.14
15 -0.3
31 0.15
38 0.15
39 0.15
4 -0.28
5 0.14
6 0.14

> <PUBCHEM_EFFECTIVE_ROTOR_COUNT>
2.4

> <PUBCHEM_PHARMACOPHORE_FEATURES>
2
6 1 2 4 7 10 11 rings
6 1 3 4 5 6 8 rings

> <PUBCHEM_HEAVY_ATOM_COUNT>
15

> <PUBCHEM_ATOM_DEF_STEREO_COUNT>
3

> <PUBCHEM_ATOM_UDEF_STEREO_COUNT>
0

> <PUBCHEM_BOND_DEF_STEREO_COUNT>
0

> <PUBCHEM_BOND_UDEF_STEREO_COUNT>
0

> <PUBCHEM_ISOTOPIC_ATOM_COUNT>
0

> <PUBCHEM_COMPONENT_COUNT>
1

> <PUBCHEM_CACTVS_TAUTO_COUNT>
1

> <PUBCHEM_CONFORMER_ID>
0096633300000001

> <PUBCHEM_MMFF94_ENERGY>
30.3882

> <PUBCHEM_FEATURE_SELFOVERLAP>
10.169

> <PUBCHEM_SHAPE_FINGERPRINT>
10756046 5 18192431866170044652
10967382 1 18411704321949551046
11471102 20 18410856594247577837
11578080 2 17488442105861565185
12138202 97 17605005873623991074
12251169 10 9367344821148004988
12423570 1 14302168072925797248
12553582 1 18272928328126214751
12932764 1 17489580165226445003
13140716 1 18124873714215093034
13221675 6 18413392055186779381
13705890 14 17894915135095367126
14576447 43 18129651036677849503
15375462 189 18130791165774121155
16945 1 18410017654006552464
17844478 74 18113341933621710237
18186145 218 17748830687255324263
19422 9 18342468023435644793
200 152 18342454824647696860
20201158 50 18407762538282935890
20645477 70 18408595960097874887
21452121 199 18194664987313579178
21501502 16 18268435633172862776
22112679 90 17684643234577896282
22802520 49 18114733837859172381
23114952 82 18041552538325867373
2334 1 17764022862770363902
23402539 116 18411416177168068244
23402655 69 18412545396895090597
23419403 2 16530805952406714024
23552423 10 18265054630601281378
23557571 272 17845649231927574026
23559900 14 17407107765592455062
25 1 18334579091656509268
25610 137 18408893948854345885
2748010 2 18196926686789244805
3060560 45 18340196513642524679
353137 74 18334295361737845016
528886 8 18341895255102556218
59915604 170 18260834816817139176
7364860 26 18343577464885527288
7832392 63 18123478172061872560
81228 2 17473809641978487771
83771 10 18272654536830029305

> <PUBCHEM_SHAPE_MULTIPOLES>
308.69
5.86
2.11
1.17
3.82
0.15
0.16
1.14
-1.38
-1.27
0.05
0.36
0.16
-0.16

> <PUBCHEM_SHAPE_SELFOVERLAP>
629.894

> <PUBCHEM_SHAPE_VOLUME>
178.5

> <PUBCHEM_COORDINATE_TYPE>
2
5
10

$$$$
