98781
  -OEChem-11232109173D

 19 18  0     0  0  0  0  0  0999 V2000
    0.0881    0.7634   -0.0533 S   0  0  0  0  0  0  0  0  0  0  0  0
   -2.6426    0.4851    0.1035 C   0  0  0  0  0  0  0  0  0  0  0  0
   -1.3621   -0.3282   -0.0492 C   0  0  0  0  0  0  0  0  0  0  0  0
   -3.8679   -0.4172    0.1047 C   0  0  0  0  0  0  0  0  0  0  0  0
    1.3637   -0.4951   -0.2895 C   0  0  0  0  0  0  0  0  0  0  0  0
    2.7151    0.1425   -0.3332 C   0  0  0  0  0  0  0  0  0  0  0  0
    3.7058   -0.1506    0.5169 C   0  0  0  0  0  0  0  0  0  0  0  0
   -2.6240    1.0546    1.0407 H   0  0  0  0  0  0  0  0  0  0  0  0
   -2.7376    1.2060   -0.7175 H   0  0  0  0  0  0  0  0  0  0  0  0
   -1.2679   -1.0398    0.7779 H   0  0  0  0  0  0  0  0  0  0  0  0
   -1.3857   -0.8902   -0.9888 H   0  0  0  0  0  0  0  0  0  0  0  0
   -3.8281   -1.1319    0.9330 H   0  0  0  0  0  0  0  0  0  0  0  0
   -4.7783    0.1803    0.2151 H   0  0  0  0  0  0  0  0  0  0  0  0
   -3.9422   -0.9794   -0.8318 H   0  0  0  0  0  0  0  0  0  0  0  0
    1.2975   -1.2290    0.5205 H   0  0  0  0  0  0  0  0  0  0  0  0
    1.1861   -1.0145   -1.2368 H   0  0  0  0  0  0  0  0  0  0  0  0
    2.9101    0.8663   -1.1213 H   0  0  0  0  0  0  0  0  0  0  0  0
    4.6704    0.3366    0.4250 H   0  0  0  0  0  0  0  0  0  0  0  0
    3.5750   -0.8744    1.3137 H   0  0  0  0  0  0  0  0  0  0  0  0
  1  3  1  0  0  0  0
  1  5  1  0  0  0  0
  2  3  1  0  0  0  0
  2  4  1  0  0  0  0
  2  8  1  0  0  0  0
  2  9  1  0  0  0  0
  3 10  1  0  0  0  0
  3 11  1  0  0  0  0
  4 12  1  0  0  0  0
  4 13  1  0  0  0  0
  4 14  1  0  0  0  0
  5  6  1  0  0  0  0
  5 15  1  0  0  0  0
  5 16  1  0  0  0  0
  6  7  2  0  0  0  0
  6 17  1  0  0  0  0
  7 18  1  0  0  0  0
  7 19  1  0  0  0  0
M  END
> <PUBCHEM_COMPOUND_CID>
98781

> <PUBCHEM_CONFORMER_RMSD>
0.6

> <PUBCHEM_CONFORMER_DIVERSEORDER>
1
9
16
12
11
8
3
17
5
15
4
2
7
14
13
6
10

> <PUBCHEM_MMFF94_PARTIAL_CHARGES>
8
1 -0.46
17 0.15
18 0.15
19 0.15
3 0.23
5 0.37
6 -0.29
7 -0.3

> <PUBCHEM_EFFECTIVE_ROTOR_COUNT>
4

> <PUBCHEM_PHARMACOPHORE_FEATURES>
3
1 4 hydrophobe
1 7 hydrophobe
5 1 2 3 5 6 hydrophobe

> <PUBCHEM_HEAVY_ATOM_COUNT>
7

> <PUBCHEM_ATOM_DEF_STEREO_COUNT>
0

> <PUBCHEM_ATOM_UDEF_STEREO_COUNT>
0

> <PUBCHEM_BOND_DEF_STEREO_COUNT>
0

> <PUBCHEM_BOND_UDEF_STEREO_COUNT>
0

> <PUBCHEM_ISOTOPIC_ATOM_COUNT>
0

> <PUBCHEM_COMPONENT_COUNT>
1

> <PUBCHEM_CACTVS_TAUTO_COUNT>
1

> <PUBCHEM_CONFORMER_ID>
000181DD00000001

> <PUBCHEM_MMFF94_ENERGY>
2.3941

> <PUBCHEM_FEATURE_SELFOVERLAP>
15.223

> <PUBCHEM_SHAPE_FINGERPRINT>
11062470 55 16415763024437290769
12932764 1 13614233724966094437
14325111 11 18341333314186881087
177051 138 18187081720241524090
190213 19 18341895181866527109
20719005 15 18412825789260188135
5460574 1 7997969063724505725

> <PUBCHEM_SHAPE_MULTIPOLES>
147.91
7.14
0.84
0.7
0.79
0.07
-0.01
-0.88
-0.88
0.12
0.01
-0.19
0
-0.03

> <PUBCHEM_SHAPE_SELFOVERLAP>
244.358

> <PUBCHEM_SHAPE_VOLUME>
101.2

> <PUBCHEM_COORDINATE_TYPE>
2
5
10

$$$$
