99818
  -OEChem-11232109113D

 28 28  0     1  0  0  0  0  0999 V2000
   -0.0245   -0.6368   -1.7565 O   0  0  0  0  0  0  0  0  0  0  0  0
    3.0568    0.5435    0.3362 O   0  0  0  0  0  0  0  0  0  0  0  0
    2.4023   -1.6125   -0.1709 O   0  0  0  0  0  0  0  0  0  0  0  0
   -0.2851   -0.7478   -0.3567 C   0  0  1  0  0  0  0  0  0  0  0  0
    0.7564    0.0499    0.4303 C   0  0  0  0  0  0  0  0  0  0  0  0
   -1.6859   -0.2448   -0.0941 C   0  0  0  0  0  0  0  0  0  0  0  0
   -2.4185   -0.7922    0.9461 C   0  0  0  0  0  0  0  0  0  0  0  0
   -2.2092    0.7540   -0.8986 C   0  0  0  0  0  0  0  0  0  0  0  0
    2.1504   -0.4588    0.1519 C   0  0  0  0  0  0  0  0  0  0  0  0
   -3.7112   -0.3279    1.1887 C   0  0  0  0  0  0  0  0  0  0  0  0
   -3.5020    1.2183   -0.6558 C   0  0  0  0  0  0  0  0  0  0  0  0
   -4.2529    0.6773    0.3879 C   0  0  0  0  0  0  0  0  0  0  0  0
    4.4252    0.1825    0.1248 C   0  0  0  0  0  0  0  0  0  0  0  0
    5.2982    1.3952    0.3668 C   0  0  0  0  0  0  0  0  0  0  0  0
   -0.2321   -1.8156   -0.1106 H   0  0  0  0  0  0  0  0  0  0  0  0
    0.7153    1.1031    0.1242 H   0  0  0  0  0  0  0  0  0  0  0  0
    0.5763   -0.0083    1.5090 H   0  0  0  0  0  0  0  0  0  0  0  0
   -2.0039   -1.5738    1.5761 H   0  0  0  0  0  0  0  0  0  0  0  0
   -1.6406    1.2029   -1.7075 H   0  0  0  0  0  0  0  0  0  0  0  0
   -4.2956   -0.7486    2.0018 H   0  0  0  0  0  0  0  0  0  0  0  0
   -3.9229    2.0037   -1.2769 H   0  0  0  0  0  0  0  0  0  0  0  0
    0.8087   -1.1017   -1.9424 H   0  0  0  0  0  0  0  0  0  0  0  0
   -5.2590    1.0397    0.5776 H   0  0  0  0  0  0  0  0  0  0  0  0
    4.7031   -0.6183    0.8192 H   0  0  0  0  0  0  0  0  0  0  0  0
    4.5555   -0.1678   -0.9053 H   0  0  0  0  0  0  0  0  0  0  0  0
    6.3538    1.1542    0.2134 H   0  0  0  0  0  0  0  0  0  0  0  0
    5.0199    2.2112   -0.3083 H   0  0  0  0  0  0  0  0  0  0  0  0
    5.1653    1.7681    1.3877 H   0  0  0  0  0  0  0  0  0  0  0  0
  1  4  1  0  0  0  0
  1 22  1  0  0  0  0
  2  9  1  0  0  0  0
  2 13  1  0  0  0  0
  3  9  2  0  0  0  0
  4  5  1  0  0  0  0
  4  6  1  0  0  0  0
  4 15  1  0  0  0  0
  5  9  1  0  0  0  0
  5 16  1  0  0  0  0
  5 17  1  0  0  0  0
  6  7  2  0  0  0  0
  6  8  1  0  0  0  0
  7 10  1  0  0  0  0
  7 18  1  0  0  0  0
  8 11  2  0  0  0  0
  8 19  1  0  0  0  0
 10 12  2  0  0  0  0
 10 20  1  0  0  0  0
 11 12  1  0  0  0  0
 11 21  1  0  0  0  0
 12 23  1  0  0  0  0
 13 14  1  0  0  0  0
 13 24  1  0  0  0  0
 13 25  1  0  0  0  0
 14 26  1  0  0  0  0
 14 27  1  0  0  0  0
 14 28  1  0  0  0  0
M  END
> <PUBCHEM_COMPOUND_CID>
99818

> <PUBCHEM_CONFORMER_RMSD>
0.6

> <PUBCHEM_CONFORMER_DIVERSEORDER>
1
72
110
7
67
29
40
66
11
55
25
103
68
59
30
27
108
3
87
73
47
41
12
96
20
38
36
42
84
98
37
62
100
90
76
75
22
9
51
52
104
57
44
58
109
70
46
80
35
101
19
13
102
88
33
50
60
77
14
39
43
6
24
95
16
63
92
48
21
26
23
61
107
8
71
78
99
17
54
91
5
56
15
18
97
79
86
10
2
105
64
4
65
34
85
89
74
83
28
69
111
49
94
32
93
31
106
45
53
81
82

> <PUBCHEM_MMFF94_PARTIAL_CHARGES>
19
1 -0.68
10 -0.15
11 -0.15
12 -0.15
13 0.28
18 0.15
19 0.15
2 -0.43
20 0.15
21 0.15
22 0.4
23 0.15
3 -0.57
4 0.42
5 0.06
6 -0.14
7 -0.15
8 -0.15
9 0.66

> <PUBCHEM_EFFECTIVE_ROTOR_COUNT>
5

> <PUBCHEM_PHARMACOPHORE_FEATURES>
4
1 1 acceptor
1 1 donor
1 3 acceptor
6 6 7 8 10 11 12 rings

> <PUBCHEM_HEAVY_ATOM_COUNT>
14

> <PUBCHEM_ATOM_DEF_STEREO_COUNT>
0

> <PUBCHEM_ATOM_UDEF_STEREO_COUNT>
1

> <PUBCHEM_BOND_DEF_STEREO_COUNT>
0

> <PUBCHEM_BOND_UDEF_STEREO_COUNT>
0

> <PUBCHEM_ISOTOPIC_ATOM_COUNT>
0

> <PUBCHEM_COMPONENT_COUNT>
1

> <PUBCHEM_CACTVS_TAUTO_COUNT>
1

> <PUBCHEM_CONFORMER_ID>
000185EA00000001

> <PUBCHEM_MMFF94_ENERGY>
25.9529

> <PUBCHEM_FEATURE_SELFOVERLAP>
20.298

> <PUBCHEM_SHAPE_FINGERPRINT>
11132069 177 16805324362166584279
11543360 7 13254788088379280240
12251169 10 17240203239675599775
12507560 40 18260267404250285391
13214271 11 18187641431383233972
13690532 89 7925918075747303216
13760787 5 17560802091551121862
14252887 29 13045932492098668600
14993402 34 16630803313721785048
15219456 202 18335986363455845455
15775835 57 17703785916352825695
18186145 218 15338825461269732931
19026448 4 18260552177677593739
19050596 39 16587747555212024588
20279233 1 18259989253668062635
20300324 65 13758355583152541571
20325693 3 13973968714148636393
20432913 95 13117994487998117856
204376 136 18201720660666030502
20645476 183 16702012102057891741
20645477 56 18333731320825547364
20645477 70 18200873950955903966
20711985 327 15430040971569135462
21065199 12 18040435455950037674
21119208 17 13254795733062500713
22959321 60 18186801396236745544
231179 274 18272932717746159036
23402539 116 15791726438259667475
23402655 69 15267071306502358409
23557571 272 17386009408269082670
23559900 14 17750805350315729854
26918003 58 11386363738150871556
449060 50 18334859415639993854
4990 188 13110965318851588644
5104073 3 17968097452366993889
57265010 4 17312823783888722769
633830 44 17631463279925493631

> <PUBCHEM_SHAPE_MULTIPOLES>
270.51
9.82
1.24
1.08
8.95
0.08
-0.24
3.51
2.97
0.02
-0.03
-0.37
-0.07
0.91

> <PUBCHEM_SHAPE_SELFOVERLAP>
548.848

> <PUBCHEM_SHAPE_VOLUME>
157.3

> <PUBCHEM_COORDINATE_TYPE>
2
5
10

$$$$
