15510
  -OEChem-11232110303D

 16 16  0     0  0  0  0  0  0999 V2000
    2.0049    0.0001   -0.7402 S   0  0  0  0  0  0  0  0  0  0  0  0
    0.7906    0.0012    0.6234 C   0  0  0  0  0  0  0  0  0  0  0  0
   -0.1582   -1.1894    0.5263 C   0  0  0  0  0  0  0  0  0  0  0  0
   -0.1612    1.1895    0.5270 C   0  0  0  0  0  0  0  0  0  0  0  0
   -1.2386   -0.7653   -0.4668 C   0  0  0  0  0  0  0  0  0  0  0  0
   -1.2375    0.7639   -0.4697 C   0  0  0  0  0  0  0  0  0  0  0  0
    1.3440    0.0018    1.5671 H   0  0  0  0  0  0  0  0  0  0  0  0
   -0.6262   -1.3559    1.5053 H   0  0  0  0  0  0  0  0  0  0  0  0
    0.3274   -2.1279    0.2397 H   0  0  0  0  0  0  0  0  0  0  0  0
    0.3236    2.1290    0.2424 H   0  0  0  0  0  0  0  0  0  0  0  0
   -0.6318    1.3532    1.5051 H   0  0  0  0  0  0  0  0  0  0  0  0
   -2.2163   -1.1693   -0.1845 H   0  0  0  0  0  0  0  0  0  0  0  0
   -1.0086   -1.1409   -1.4704 H   0  0  0  0  0  0  0  0  0  0  0  0
   -1.0016    1.1353   -1.4736 H   0  0  0  0  0  0  0  0  0  0  0  0
   -2.2160    1.1705   -0.1942 H   0  0  0  0  0  0  0  0  0  0  0  0
    2.6310   -1.1320   -0.3865 H   0  0  0  0  0  0  0  0  0  0  0  0
  1  2  1  0  0  0  0
  1 16  1  0  0  0  0
  2  3  1  0  0  0  0
  2  4  1  0  0  0  0
  2  7  1  0  0  0  0
  3  5  1  0  0  0  0
  3  8  1  0  0  0  0
  3  9  1  0  0  0  0
  4  6  1  0  0  0  0
  4 10  1  0  0  0  0
  4 11  1  0  0  0  0
  5  6  1  0  0  0  0
  5 12  1  0  0  0  0
  5 13  1  0  0  0  0
  6 14  1  0  0  0  0
  6 15  1  0  0  0  0
M  END
> <PUBCHEM_COMPOUND_CID>
15510

> <PUBCHEM_CONFORMER_RMSD>
0.4

> <PUBCHEM_CONFORMER_DIVERSEORDER>
2
1

> <PUBCHEM_MMFF94_PARTIAL_CHARGES>
3
1 -0.41
16 0.18
2 0.23

> <PUBCHEM_EFFECTIVE_ROTOR_COUNT>
1

> <PUBCHEM_PHARMACOPHORE_FEATURES>
1
5 2 3 4 5 6 rings

> <PUBCHEM_HEAVY_ATOM_COUNT>
6

> <PUBCHEM_ATOM_DEF_STEREO_COUNT>
0

> <PUBCHEM_ATOM_UDEF_STEREO_COUNT>
0

> <PUBCHEM_BOND_DEF_STEREO_COUNT>
0

> <PUBCHEM_BOND_UDEF_STEREO_COUNT>
0

> <PUBCHEM_ISOTOPIC_ATOM_COUNT>
0

> <PUBCHEM_COMPONENT_COUNT>
1

> <PUBCHEM_CACTVS_TAUTO_COUNT>
1

> <PUBCHEM_CONFORMER_ID>
00003C9600000002

> <PUBCHEM_MMFF94_ENERGY>
8.8909

> <PUBCHEM_FEATURE_SELFOVERLAP>
5.074

> <PUBCHEM_SHAPE_FINGERPRINT>
16714656 1 18410864260553081165
20096714 4 17676771963772859876
21015797 1 8861218831272576569
21040471 1 18122889959094660665
29004967 10 16845288380004952498
5943 1 13268376995109368818

> <PUBCHEM_SHAPE_MULTIPOLES>
127.33
2
1.28
0.96
0.93
0
0.02
0
0.68
-0.32
-0.14
0.11
0
0

> <PUBCHEM_SHAPE_SELFOVERLAP>
233.609

> <PUBCHEM_SHAPE_VOLUME>
83.8

> <PUBCHEM_COORDINATE_TYPE>
2
5
10

$$$$
