16867
  -OEChem-11232110293D

 13 13  0     0  0  0  0  0  0999 V2000
    0.1437    1.4451   -0.1828 S   0  0  0  0  0  0  0  0  0  0  0  0
   -0.1085   -1.1485    0.0278 N   0  0  0  0  0  0  0  0  0  0  0  0
    1.6463    0.5554    0.2604 C   0  0  0  0  0  0  0  0  0  0  0  0
    1.3295   -0.8689   -0.1680 C   0  0  0  0  0  0  0  0  0  0  0  0
   -0.7635   -0.0357   -0.0237 C   0  0  0  0  0  0  0  0  0  0  0  0
   -2.2474    0.0528    0.0864 C   0  0  0  0  0  0  0  0  0  0  0  0
    1.7882    0.6144    1.3440 H   0  0  0  0  0  0  0  0  0  0  0  0
    2.5306    0.9554   -0.2419 H   0  0  0  0  0  0  0  0  0  0  0  0
    1.5822   -1.0293   -1.2237 H   0  0  0  0  0  0  0  0  0  0  0  0
    1.9242   -1.5776    0.4182 H   0  0  0  0  0  0  0  0  0  0  0  0
   -2.5186    0.5510    1.0216 H   0  0  0  0  0  0  0  0  0  0  0  0
   -2.6864   -0.9488    0.0800 H   0  0  0  0  0  0  0  0  0  0  0  0
   -2.6545    0.6216   -0.7544 H   0  0  0  0  0  0  0  0  0  0  0  0
  1  3  1  0  0  0  0
  1  5  1  0  0  0  0
  2  4  1  0  0  0  0
  2  5  2  0  0  0  0
  3  4  1  0  0  0  0
  3  7  1  0  0  0  0
  3  8  1  0  0  0  0
  4  9  1  0  0  0  0
  4 10  1  0  0  0  0
  5  6  1  0  0  0  0
  6 11  1  0  0  0  0
  6 12  1  0  0  0  0
  6 13  1  0  0  0  0
M  END
> <PUBCHEM_COMPOUND_CID>
16867

> <PUBCHEM_CONFORMER_RMSD>
0.4

> <PUBCHEM_CONFORMER_DIVERSEORDER>
1

> <PUBCHEM_MMFF94_PARTIAL_CHARGES>
6
1 -0.37
2 -0.7
3 0.23
4 0.25
5 0.53
6 0.06

> <PUBCHEM_EFFECTIVE_ROTOR_COUNT>
0.6

> <PUBCHEM_PHARMACOPHORE_FEATURES>
2
1 2 acceptor
5 1 2 3 4 5 rings

> <PUBCHEM_HEAVY_ATOM_COUNT>
6

> <PUBCHEM_ATOM_DEF_STEREO_COUNT>
0

> <PUBCHEM_ATOM_UDEF_STEREO_COUNT>
0

> <PUBCHEM_BOND_DEF_STEREO_COUNT>
0

> <PUBCHEM_BOND_UDEF_STEREO_COUNT>
0

> <PUBCHEM_ISOTOPIC_ATOM_COUNT>
0

> <PUBCHEM_COMPONENT_COUNT>
1

> <PUBCHEM_CACTVS_TAUTO_COUNT>
1

> <PUBCHEM_CONFORMER_ID>
000041E300000001

> <PUBCHEM_MMFF94_ENERGY>
7.9366

> <PUBCHEM_FEATURE_SELFOVERLAP>
10.148

> <PUBCHEM_SHAPE_FINGERPRINT>
139733 1 9439107754522453821
16714656 1 18409736170540069188
20096714 4 18267304407427347896
21040471 1 18267305506975918412
29004967 10 18333737909416175401

> <PUBCHEM_SHAPE_MULTIPOLES>
122.35
2.32
1.37
0.64
0.87
0.23
0.01
-0.08
-0.15
-0.29
0.07
-0.03
0.04
0.07

> <PUBCHEM_SHAPE_SELFOVERLAP>
223.547

> <PUBCHEM_SHAPE_VOLUME>
80.1

> <PUBCHEM_COORDINATE_TYPE>
2
5
10

$$$$
