2723888
  -OEChem-11232110293D

 27 26  0     1  0  0  0  0  0999 V2000
    2.9460    1.3364    0.3237 O   0  0  0  0  0  0  0  0  0  0  0  0
    0.2845    0.2386   -0.2234 C   0  0  0  0  0  0  0  0  0  0  0  0
   -0.9965   -0.4783    0.2106 C   0  0  0  0  0  0  0  0  0  0  0  0
    1.5262   -0.5992    0.1056 C   0  0  0  0  0  0  0  0  0  0  0  0
   -2.2723    0.3007   -0.1217 C   0  0  0  0  0  0  0  0  0  0  0  0
    2.8200    0.0850   -0.3460 C   0  0  2  0  0  0  0  0  0  0  0  0
   -3.5545   -0.4478    0.2445 C   0  0  0  0  0  0  0  0  0  0  0  0
    4.0376   -0.7704   -0.0226 C   0  0  0  0  0  0  0  0  0  0  0  0
   -4.7910    0.3350   -0.1707 C   0  0  0  0  0  0  0  0  0  0  0  0
    0.3318    1.2087    0.2839 H   0  0  0  0  0  0  0  0  0  0  0  0
    0.2488    0.4349   -1.3016 H   0  0  0  0  0  0  0  0  0  0  0  0
   -0.9619   -0.6647    1.2911 H   0  0  0  0  0  0  0  0  0  0  0  0
   -1.0413   -1.4595   -0.2785 H   0  0  0  0  0  0  0  0  0  0  0  0
    1.5573   -0.7617    1.1905 H   0  0  0  0  0  0  0  0  0  0  0  0
    1.4441   -1.5824   -0.3730 H   0  0  0  0  0  0  0  0  0  0  0  0
   -2.2516    1.2653    0.4005 H   0  0  0  0  0  0  0  0  0  0  0  0
   -2.2815    0.5234   -1.1961 H   0  0  0  0  0  0  0  0  0  0  0  0
    2.7957    0.2766   -1.4249 H   0  0  0  0  0  0  0  0  0  0  0  0
   -3.5672   -1.4266   -0.2487 H   0  0  0  0  0  0  0  0  0  0  0  0
   -3.5826   -0.6278    1.3253 H   0  0  0  0  0  0  0  0  0  0  0  0
    3.9899   -1.7392   -0.5288 H   0  0  0  0  0  0  0  0  0  0  0  0
    4.1227   -0.9401    1.0565 H   0  0  0  0  0  0  0  0  0  0  0  0
    4.9550   -0.2585   -0.3327 H   0  0  0  0  0  0  0  0  0  0  0  0
   -4.8068    0.4992   -1.2529 H   0  0  0  0  0  0  0  0  0  0  0  0
   -5.6968   -0.2153    0.1024 H   0  0  0  0  0  0  0  0  0  0  0  0
   -4.8229    1.3100    0.3259 H   0  0  0  0  0  0  0  0  0  0  0  0
    2.3367    1.9633   -0.1009 H   0  0  0  0  0  0  0  0  0  0  0  0
  1  6  1  0  0  0  0
  1 27  1  0  0  0  0
  2  3  1  0  0  0  0
  2  4  1  0  0  0  0
  2 10  1  0  0  0  0
  2 11  1  0  0  0  0
  3  5  1  0  0  0  0
  3 12  1  0  0  0  0
  3 13  1  0  0  0  0
  4  6  1  0  0  0  0
  4 14  1  0  0  0  0
  4 15  1  0  0  0  0
  5  7  1  0  0  0  0
  5 16  1  0  0  0  0
  5 17  1  0  0  0  0
  6  8  1  0  0  0  0
  6 18  1  0  0  0  0
  7  9  1  0  0  0  0
  7 19  1  0  0  0  0
  7 20  1  0  0  0  0
  8 21  1  0  0  0  0
  8 22  1  0  0  0  0
  8 23  1  0  0  0  0
  9 24  1  0  0  0  0
  9 25  1  0  0  0  0
  9 26  1  0  0  0  0
M  END
> <PUBCHEM_COMPOUND_CID>
2723888

> <PUBCHEM_CONFORMER_RMSD>
0.6

> <PUBCHEM_CONFORMER_DIVERSEORDER>
1
70
20
6
64
66
44
3
63
51
65
16
14
50
43
15
41
59
69
4
52
29
9
31
71
18
32
24
37
61
49
26
67
8
45
25
10
2
13
46
28
62
40
58
39
12
60
33
19
22
38
30
21
54
68
53
35
7
48
36
42
5
57
27
34
56
55
17
11
23
47

> <PUBCHEM_MMFF94_PARTIAL_CHARGES>
3
1 -0.68
27 0.4
6 0.28

> <PUBCHEM_EFFECTIVE_ROTOR_COUNT>
5

> <PUBCHEM_PHARMACOPHORE_FEATURES>
4
1 1 acceptor
1 1 donor
1 9 hydrophobe
5 2 3 4 5 7 hydrophobe

> <PUBCHEM_HEAVY_ATOM_COUNT>
9

> <PUBCHEM_ATOM_DEF_STEREO_COUNT>
1

> <PUBCHEM_ATOM_UDEF_STEREO_COUNT>
0

> <PUBCHEM_BOND_DEF_STEREO_COUNT>
0

> <PUBCHEM_BOND_UDEF_STEREO_COUNT>
0

> <PUBCHEM_ISOTOPIC_ATOM_COUNT>
0

> <PUBCHEM_COMPONENT_COUNT>
1

> <PUBCHEM_CACTVS_TAUTO_COUNT>
1

> <PUBCHEM_CONFORMER_ID>
0029903000000001

> <PUBCHEM_MMFF94_ENERGY>
1.0631

> <PUBCHEM_FEATURE_SELFOVERLAP>
20.297

> <PUBCHEM_SHAPE_FINGERPRINT>
11062470 55 18408887339005055455
12932764 1 17676755539680886726
14123238 8 10447922871721009283
14325111 11 18410575106327942891
17834076 25 15936130755186502847
190213 19 16917071057486499055
20645477 70 18339923714574228327
20719005 15 18409167710191099223
21293036 1 12391511983727818199
22485316 2 18409164424404117139
23402539 116 17846210034518868013
42788 4 18334576836693209807

> <PUBCHEM_SHAPE_MULTIPOLES>
179.35
9.16
0.94
0.65
4.22
0.12
0.01
0.04
0.18
-0.55
-0.07
-0.01
0.01
0.21

> <PUBCHEM_SHAPE_SELFOVERLAP>
314.236

> <PUBCHEM_SHAPE_VOLUME>
119

> <PUBCHEM_COORDINATE_TYPE>
2
5
10

$$$$
