637523
  -OEChem-11232110293D

 33 32  0     0  0  0  0  0  0999 V2000
    0.8326   -0.1048    0.0651 O   0  0  0  0  0  0  0  0  0  0  0  0
    2.0765    1.8152    0.3251 O   0  0  0  0  0  0  0  0  0  0  0  0
   -2.8808    0.4641    0.0007 C   0  0  0  0  0  0  0  0  0  0  0  0
   -4.1049   -0.4492   -0.1098 C   0  0  0  0  0  0  0  0  0  0  0  0
   -1.5536   -0.2923   -0.0299 C   0  0  0  0  0  0  0  0  0  0  0  0
   -5.4323    0.3099   -0.1040 C   0  0  0  0  0  0  0  0  0  0  0  0
   -0.3684    0.6530    0.1158 C   0  0  0  0  0  0  0  0  0  0  0  0
   -6.6165   -0.6443   -0.1425 C   0  0  0  0  0  0  0  0  0  0  0  0
    1.9945    0.6035    0.1827 C   0  0  0  0  0  0  0  0  0  0  0  0
    3.1636   -0.3243    0.1052 C   0  0  0  0  0  0  0  0  0  0  0  0
    3.0019   -1.7186    0.6340 C   0  0  0  0  0  0  0  0  0  0  0  0
    4.2911    0.1940   -0.4156 C   0  0  0  0  0  0  0  0  0  0  0  0
    5.5960   -0.5062   -0.6267 C   0  0  0  0  0  0  0  0  0  0  0  0
   -2.9488    1.0391    0.9326 H   0  0  0  0  0  0  0  0  0  0  0  0
   -2.9010    1.1905   -0.8213 H   0  0  0  0  0  0  0  0  0  0  0  0
   -4.0312   -1.0397   -1.0316 H   0  0  0  0  0  0  0  0  0  0  0  0
   -4.0912   -1.1623    0.7240 H   0  0  0  0  0  0  0  0  0  0  0  0
   -1.4604   -0.8551   -0.9669 H   0  0  0  0  0  0  0  0  0  0  0  0
   -1.5243   -1.0390    0.7733 H   0  0  0  0  0  0  0  0  0  0  0  0
   -5.5006    0.9310    0.7966 H   0  0  0  0  0  0  0  0  0  0  0  0
   -5.4784    0.9831   -0.9677 H   0  0  0  0  0  0  0  0  0  0  0  0
   -0.3710    1.3860   -0.6995 H   0  0  0  0  0  0  0  0  0  0  0  0
   -0.4260    1.1821    1.0743 H   0  0  0  0  0  0  0  0  0  0  0  0
   -7.5557   -0.0823   -0.1403 H   0  0  0  0  0  0  0  0  0  0  0  0
   -6.5925   -1.2627   -1.0454 H   0  0  0  0  0  0  0  0  0  0  0  0
   -6.6153   -1.3070    0.7288 H   0  0  0  0  0  0  0  0  0  0  0  0
    3.9564   -2.1959    0.8704 H   0  0  0  0  0  0  0  0  0  0  0  0
    2.4223   -1.7096    1.5637 H   0  0  0  0  0  0  0  0  0  0  0  0
    2.4758   -2.3435   -0.0946 H   0  0  0  0  0  0  0  0  0  0  0  0
    4.2940    1.2295   -0.7529 H   0  0  0  0  0  0  0  0  0  0  0  0
    5.9186   -0.3708   -1.6642 H   0  0  0  0  0  0  0  0  0  0  0  0
    5.5499   -1.5809   -0.4385 H   0  0  0  0  0  0  0  0  0  0  0  0
    6.3598   -0.0729    0.0261 H   0  0  0  0  0  0  0  0  0  0  0  0
  1  7  1  0  0  0  0
  1  9  1  0  0  0  0
  2  9  2  0  0  0  0
  3  4  1  0  0  0  0
  3  5  1  0  0  0  0
  3 14  1  0  0  0  0
  3 15  1  0  0  0  0
  4  6  1  0  0  0  0
  4 16  1  0  0  0  0
  4 17  1  0  0  0  0
  5  7  1  0  0  0  0
  5 18  1  0  0  0  0
  5 19  1  0  0  0  0
  6  8  1  0  0  0  0
  6 20  1  0  0  0  0
  6 21  1  0  0  0  0
  7 22  1  0  0  0  0
  7 23  1  0  0  0  0
  8 24  1  0  0  0  0
  8 25  1  0  0  0  0
  8 26  1  0  0  0  0
  9 10  1  0  0  0  0
 10 11  1  0  0  0  0
 10 12  2  0  0  0  0
 11 27  1  0  0  0  0
 11 28  1  0  0  0  0
 11 29  1  0  0  0  0
 12 13  1  0  0  0  0
 12 30  1  0  0  0  0
 13 31  1  0  0  0  0
 13 32  1  0  0  0  0
 13 33  1  0  0  0  0
M  END
> <PUBCHEM_COMPOUND_CID>
637523

> <PUBCHEM_CONFORMER_RMSD>
0.8

> <PUBCHEM_CONFORMER_DIVERSEORDER>
1
176
67
181
148
243
31
84
72
182
53
163
168
166
183
71
205
83
161
46
32
130
15
89
167
231
5
156
118
73
232
113
248
189
25
86
200
28
184
209
245
78
246
235
61
227
111
108
23
204
58
125
185
206
180
100
66
144
194
178
208
188
24
65
198
128
7
6
177
90
115
211
121
2
224
193
3
136
79
215
147
249
13
186
11
149
14
45
93
172
104
80
40
8
134
202
238
30
131
239
158
162
34
153
175
146
36
192
110
233
119
196
64
4
179
12
41
203
157
174
112
97
219
120
69
229
91
59
242
117
107
17
22
44
109
164
43
114
42
201
187
220
212
103
56
51
124
99
81
127
26
126
98
47
169
170
197
88
138
155
57
143
222
226
150
21
39
240
55
10
116
123
199
171
60
160
19
82
52
37
191
141
210
213
102
137
247
38
133
94
92
132
151
159
33
207
122
218
95
165
35
139
154
54
68
20
101
230
76
105
225
75
16
228
62
74
106
135
140
223
9
70
217
173
142
49
48
63
145
77
244
152
237
85
195
234
190
27
221
216
18
29
96
241
236
214
50
87
129

> <PUBCHEM_MMFF94_PARTIAL_CHARGES>
9
1 -0.43
10 -0.12
11 0.14
12 -0.29
13 0.14
2 -0.57
30 0.15
7 0.28
9 0.71

> <PUBCHEM_EFFECTIVE_ROTOR_COUNT>
7

> <PUBCHEM_PHARMACOPHORE_FEATURES>
5
1 11 hydrophobe
1 13 hydrophobe
1 2 acceptor
1 8 hydrophobe
4 3 4 5 6 hydrophobe

> <PUBCHEM_HEAVY_ATOM_COUNT>
13

> <PUBCHEM_ATOM_DEF_STEREO_COUNT>
0

> <PUBCHEM_ATOM_UDEF_STEREO_COUNT>
0

> <PUBCHEM_BOND_DEF_STEREO_COUNT>
1

> <PUBCHEM_BOND_UDEF_STEREO_COUNT>
0

> <PUBCHEM_ISOTOPIC_ATOM_COUNT>
0

> <PUBCHEM_COMPONENT_COUNT>
1

> <PUBCHEM_CACTVS_TAUTO_COUNT>
1

> <PUBCHEM_CONFORMER_ID>
0009BA5300000001

> <PUBCHEM_MMFF94_ENERGY>
9.5773

> <PUBCHEM_FEATURE_SELFOVERLAP>
25.374

> <PUBCHEM_SHAPE_FINGERPRINT>
114248 4 17095242518736841559
117890 112 10737275841156081207
12714333 28 14996285829281995366
13167823 11 18271239512958167471
13533116 47 13973694883923420206
13836976 161 18334300876977045822
14123238 8 17676206866462358567
14251718 22 17385726902484259767
14252887 29 17846223228869378302
15048467 5 11746934291846032863
15242433 33 18334295361727412371
15242439 84 18187365450139154273
17834072 33 18408323306482511845
17834072 8 18409727366152466119
17834076 25 17312822679923702903
20645477 70 18114740421981019210
20767249 213 11746938694076630919
21150785 3 13840267035634335043
23402539 116 16343699920489422733
23402655 69 18261388918958472181
23559900 14 18336542836809633265
26918003 58 11887951064575835143
351380 3 18202280303731770407
42788 4 18411982464274239645
465052 167 18273500073840492055
522135 26 18333729117623330130
57483677 66 18341327864596354839
58051976 100 18339639040199985263
8209 1 18407761439219493294

> <PUBCHEM_SHAPE_MULTIPOLES>
255.8
14.86
1.21
0.69
14.77
0.02
-0.01
3.24
-2.39
-0.9
0.2
-0.31
0.05
-0.13

> <PUBCHEM_SHAPE_SELFOVERLAP>
473.315

> <PUBCHEM_SHAPE_VOLUME>
161.4

> <PUBCHEM_COORDINATE_TYPE>
2
5
10

$$$$
